_1
  -OEChem-10142010503D

 53 57  0     1  0  0  0  0  0999 V2000
   11.9159  -24.5733  -17.7814 C   0  0  0  0  0  0  0  0  0  0  0  0
   10.6361  -24.8601  -18.2562 C   0  0  0  0  0  0  0  0  0  0  0  0
   12.6145  -26.8264  -18.3033 C   0  0  0  0  0  0  0  0  0  0  0  0
   10.3756  -30.3193  -13.2502 C   0  0  0  0  0  0  0  0  0  0  0  0
   11.3347  -27.1133  -18.7781 C   0  0  0  0  0  0  0  0  0  0  0  0
   10.0443  -29.4307  -14.2818 C   0  0  0  0  0  0  0  0  0  0  0  0
   12.9051  -25.5564  -17.8050 C   0  0  0  0  0  0  0  0  0  0  0  0
   10.3455  -26.1301  -18.7545 C   0  0  0  0  0  0  0  0  0  0  0  0
   10.7976  -29.8426  -15.3578 C   0  0  0  0  0  0  0  0  0  0  0  0
   12.5454  -31.1783  -17.0430 C   0  0  0  0  0  0  0  0  0  0  0  0
   12.4031  -31.5964  -15.7824 C   0  0  0  0  0  0  0  0  0  0  0  0
   11.7228  -29.9860  -17.4526 C   0  0  0  0  0  0  0  0  0  0  0  0
    8.3806  -27.8897  -13.1697 C   0  0  0  0  0  0  0  0  0  0  0  0
   12.6856  -29.2336  -20.9055 C   0  0  0  0  0  0  0  0  0  0  0  0
   11.2950  -28.6176  -20.8252 C   0  0  0  0  0  0  0  0  0  0  0  0
    6.3005  -24.8376  -13.0764 C   0  0  0  0  0  0  0  0  0  0  0  0
   12.7341  -30.1655  -19.7014 C   0  0  0  0  0  0  0  0  0  0  0  0
    6.7229  -26.1663  -12.4663 C   0  0  0  0  0  0  0  0  0  0  0  0
    7.4518  -26.1002  -14.7605 C   0  0  0  0  0  0  0  0  0  0  0  0
   11.0212  -28.4952  -19.3187 C   0  0  1  0  0  0  0  0  0  0  0  0
    6.2956  -25.1258  -14.5743 C   0  0  1  0  0  0  0  0  0  0  0  0
   11.2714  -31.2330  -13.6224 N   0  0  0  0  0  0  0  0  0  0  0  0
   10.9012  -29.3713  -16.6311 N   0  0  0  0  0  0  0  0  0  0  0  0
   11.5327  -30.9411  -14.9231 N   0  0  0  0  0  0  0  0  0  0  0  0
   11.8494  -29.5467  -18.7220 N   0  0  0  0  0  0  0  0  0  0  0  0
    7.5775  -26.7824  -13.4708 N   0  0  0  0  0  0  0  0  0  0  0  0
    9.1381  -28.3422  -14.2506 N   0  0  0  0  0  0  0  0  0  0  0  0
    8.3921  -28.3828  -12.0403 O   0  0  0  0  0  0  0  0  0  0  0  0
    5.0814  -25.7673  -14.9465 O   0  0  0  0  0  0  0  0  0  0  0  0
   14.1341  -25.2806  -17.3496 F   0  0  0  0  0  0  0  0  0  0  0  0
    9.1129  -26.3968  -19.2085 F   0  0  0  0  0  0  0  0  0  0  0  0
   12.1431  -23.5841  -17.3952 H   0  0  0  0  0  0  0  0  0  0  0  0
    9.8657  -24.0949  -18.2374 H   0  0  0  0  0  0  0  0  0  0  0  0
   13.3919  -27.5854  -18.3177 H   0  0  0  0  0  0  0  0  0  0  0  0
   10.0034  -30.3426  -12.2357 H   0  0  0  0  0  0  0  0  0  0  0  0
   13.2092  -31.6517  -17.7542 H   0  0  0  0  0  0  0  0  0  0  0  0
   12.9482  -32.4449  -15.3864 H   0  0  0  0  0  0  0  0  0  0  0  0
   12.8514  -29.7620  -21.8487 H   0  0  0  0  0  0  0  0  0  0  0  0
   13.4496  -28.4531  -20.8095 H   0  0  0  0  0  0  0  0  0  0  0  0
   11.2350  -27.6687  -21.3678 H   0  0  0  0  0  0  0  0  0  0  0  0
   10.5719  -29.3121  -21.2711 H   0  0  0  0  0  0  0  0  0  0  0  0
    5.3254  -24.5159  -12.6990 H   0  0  0  0  0  0  0  0  0  0  0  0
    7.0481  -24.0705  -12.8433 H   0  0  0  0  0  0  0  0  0  0  0  0
   12.3510  -31.1599  -19.9638 H   0  0  0  0  0  0  0  0  0  0  0  0
   13.7566  -30.2750  -19.3206 H   0  0  0  0  0  0  0  0  0  0  0  0
    7.2549  -26.0518  -11.5171 H   0  0  0  0  0  0  0  0  0  0  0  0
    5.8639  -26.8282  -12.3100 H   0  0  0  0  0  0  0  0  0  0  0  0
    7.2791  -26.8319  -15.5553 H   0  0  0  0  0  0  0  0  0  0  0  0
    8.3947  -25.5726  -14.9389 H   0  0  0  0  0  0  0  0  0  0  0  0
    9.9327  -28.6932  -19.1217 H   0  0  0  0  0  0  0  0  0  0  0  0
    6.4080  -24.2185  -15.1745 H   0  0  0  0  0  0  0  0  0  0  0  0
    9.0766  -27.8313  -15.1775 H   0  0  0  0  0  0  0  0  0  0  0  0
    5.1318  -25.9261  -15.9025 H   0  0  0  0  0  0  0  0  0  0  0  0
  1  2  2  0  0  0  0
  1  7  1  0  0  0  0
  2  8  1  0  0  0  0
  3  5  1  0  0  0  0
  3  7  2  0  0  0  0
  4  6  1  0  0  0  0
  4 22  2  0  0  0  0
  5  8  2  0  0  0  0
  5 20  1  0  0  0  0
  6  9  2  0  0  0  0
  6 27  1  0  0  0  0
  7 30  1  0  0  0  0
  8 31  1  0  0  0  0
  9 23  1  0  0  0  0
  9 24  1  0  0  0  0
 10 11  2  0  0  0  0
 10 12  1  0  0  0  0
 11 24  1  0  0  0  0
 12 23  2  0  0  0  0
 12 25  1  0  0  0  0
 13 26  1  0  0  0  0
 13 27  1  0  0  0  0
 13 28  2  0  0  0  0
 14 15  1  0  0  0  0
 14 17  1  0  0  0  0
 15 20  1  0  0  0  0
 16 18  1  0  0  0  0
 16 21  1  0  0  0  0
 17 25  1  0  0  0  0
 18 26  1  0  0  0  0
 19 21  1  0  0  0  0
 19 26  1  0  0  0  0
 20 25  1  0  0  0  0
 21 29  1  0  0  0  0
 22 24  1  0  0  0  0
  1 32  1  0  0  0  0
  2 33  1  0  0  0  0
  3 34  1  0  0  0  0
  4 35  1  0  0  0  0
 10 36  1  0  0  0  0
 11 37  1  0  0  0  0
 14 38  1  0  0  0  0
 14 39  1  0  0  0  0
 15 40  1  0  0  0  0
 15 41  1  0  0  0  0
 16 42  1  0  0  0  0
 16 43  1  0  0  0  0
 17 44  1  0  0  0  0
 17 45  1  0  0  0  0
 18 46  1  0  0  0  0
 18 47  1  0  0  0  0
 19 48  1  0  0  0  0
 19 49  1  0  0  0  0
 20 50  1  6  0  0  0
 21 51  1  1  0  0  0
 27 52  1  0  0  0  0
 29 53  1  0  0  0  0
M  END
> <Chemgauss4>
-7.833007

$$$$
