_1
  -OEChem-10142011103D

 49 53  0     1  0  0  0  0  0999 V2000
   10.5962  -26.1194  -17.9222 C   0  0  0  0  0  0  0  0  0  0  0  0
    8.2442  -27.0878  -11.9287 C   0  0  0  0  0  0  0  0  0  0  0  0
    9.5101  -24.0236  -17.7600 C   0  0  0  0  0  0  0  0  0  0  0  0
    7.9386  -26.8351  -13.2799 C   0  0  0  0  0  0  0  0  0  0  0  0
    9.3472  -26.7601  -17.9951 C   0  0  0  0  0  0  0  0  0  0  0  0
   10.6868  -24.7395  -17.8013 C   0  0  0  0  0  0  0  0  0  0  0  0
    8.2049  -25.9407  -17.9047 C   0  0  0  0  0  0  0  0  0  0  0  0
    8.7117  -27.7486  -13.9732 C   0  0  0  0  0  0  0  0  0  0  0  0
   10.5879  -29.6433  -14.7186 C   0  0  0  0  0  0  0  0  0  0  0  0
   10.3576  -29.4186  -13.4214 C   0  0  0  0  0  0  0  0  0  0  0  0
    7.0864  -25.7990  -13.8373 C   0  0  0  0  0  0  0  0  0  0  0  0
    9.7826  -28.8355  -15.7152 C   0  0  0  0  0  0  0  0  0  0  0  0
    6.8072  -26.5140  -17.9449 C   0  0  0  0  0  0  0  0  0  0  0  0
    5.6694  -25.6520  -17.3661 C   0  0  0  0  0  0  0  0  0  0  0  0
   10.3811  -30.1648  -19.1221 C   0  0  0  0  0  0  0  0  0  0  0  0
    9.9482  -28.7491  -19.4571 C   0  0  0  0  0  0  0  0  0  0  0  0
   10.8391  -30.0593  -17.6730 C   0  0  0  0  0  0  0  0  0  0  0  0
    9.2864  -28.2686  -18.1534 C   0  0  1  0  0  0  0  0  0  0  0  0
    5.8142  -25.1722  -15.9027 C   0  0  1  0  0  0  0  0  0  0  0  0
    4.4406  -24.8111  -15.3333 C   0  0  0  0  0  0  0  0  0  0  0  0
    8.2853  -24.5867  -17.8156 N   0  0  0  0  0  0  0  0  0  0  0  0
    9.1104  -28.0871  -11.7650 N   0  0  0  0  0  0  0  0  0  0  0  0
    8.8876  -27.9598  -15.3046 N   0  0  0  0  0  0  0  0  0  0  0  0
    9.4278  -28.4686  -13.0277 N   0  0  0  0  0  0  0  0  0  0  0  0
    6.4982  -26.1376  -15.0487 N   0  0  0  0  0  0  0  0  0  0  0  0
    9.9947  -29.0153  -17.0895 N   0  0  0  0  0  0  0  0  0  0  0  0
    6.9329  -24.7254  -13.2614 O   0  0  0  0  0  0  0  0  0  0  0  0
   11.8744  -24.1282  -17.7365 F   0  0  0  0  0  0  0  0  0  0  0  0
   11.5157  -26.6988  -17.9619 H   0  0  0  0  0  0  0  0  0  0  0  0
    7.8665  -26.5830  -11.0507 H   0  0  0  0  0  0  0  0  0  0  0  0
    9.5180  -22.9422  -17.6757 H   0  0  0  0  0  0  0  0  0  0  0  0
   11.3215  -30.3639  -15.0520 H   0  0  0  0  0  0  0  0  0  0  0  0
   10.8905  -29.9454  -12.6390 H   0  0  0  0  0  0  0  0  0  0  0  0
    6.5723  -26.7342  -18.9940 H   0  0  0  0  0  0  0  0  0  0  0  0
    6.7778  -27.4690  -17.4125 H   0  0  0  0  0  0  0  0  0  0  0  0
    5.5268  -24.7696  -18.0040 H   0  0  0  0  0  0  0  0  0  0  0  0
    4.7472  -26.2413  -17.4603 H   0  0  0  0  0  0  0  0  0  0  0  0
    9.5277  -30.8490  -19.2003 H   0  0  0  0  0  0  0  0  0  0  0  0
   11.1731  -30.5253  -19.7846 H   0  0  0  0  0  0  0  0  0  0  0  0
   10.8266  -28.1541  -19.7318 H   0  0  0  0  0  0  0  0  0  0  0  0
    9.2529  -28.7239  -20.3026 H   0  0  0  0  0  0  0  0  0  0  0  0
   10.7172  -31.0254  -17.1732 H   0  0  0  0  0  0  0  0  0  0  0  0
   11.8897  -29.7542  -17.6173 H   0  0  0  0  0  0  0  0  0  0  0  0
    8.2569  -28.6364  -18.1641 H   0  0  0  0  0  0  0  0  0  0  0  0
    6.4259  -24.2617  -15.8916 H   0  0  0  0  0  0  0  0  0  0  0  0
    3.8031  -25.6925  -15.3282 H   0  0  0  0  0  0  0  0  0  0  0  0
    3.9811  -24.0395  -15.9471 H   0  0  0  0  0  0  0  0  0  0  0  0
    4.5513  -24.4422  -14.3159 H   0  0  0  0  0  0  0  0  0  0  0  0
    6.5678  -27.0964  -15.3745 H   0  0  0  0  0  0  0  0  0  0  0  0
  1  5  1  0  0  0  0
  1  6  2  0  0  0  0
  2  4  1  0  0  0  0
  2 22  2  0  0  0  0
  3  6  1  0  0  0  0
  3 21  2  0  0  0  0
  4  8  2  0  0  0  0
  4 11  1  0  0  0  0
  5  7  2  0  0  0  0
  5 18  1  0  0  0  0
  6 28  1  0  0  0  0
  7 13  1  0  0  0  0
  7 21  1  0  0  0  0
  8 23  1  0  0  0  0
  8 24  1  0  0  0  0
  9 10  2  0  0  0  0
  9 12  1  0  0  0  0
 10 24  1  0  0  0  0
 11 25  1  0  0  0  0
 11 27  2  0  0  0  0
 12 23  2  0  0  0  0
 12 26  1  0  0  0  0
 13 14  1  0  0  0  0
 14 19  1  0  0  0  0
 15 16  1  0  0  0  0
 15 17  1  0  0  0  0
 16 18  1  0  0  0  0
 17 26  1  0  0  0  0
 18 26  1  0  0  0  0
 19 20  1  0  0  0  0
 19 25  1  0  0  0  0
 22 24  1  0  0  0  0
  1 29  1  0  0  0  0
  2 30  1  0  0  0  0
  3 31  1  0  0  0  0
  9 32  1  0  0  0  0
 10 33  1  0  0  0  0
 13 34  1  0  0  0  0
 13 35  1  0  0  0  0
 14 36  1  0  0  0  0
 14 37  1  0  0  0  0
 15 38  1  0  0  0  0
 15 39  1  0  0  0  0
 16 40  1  0  0  0  0
 16 41  1  0  0  0  0
 17 42  1  0  0  0  0
 17 43  1  0  0  0  0
 18 44  1  1  0  0  0
 19 45  1  6  0  0  0
 20 46  1  0  0  0  0
 20 47  1  0  0  0  0
 20 48  1  0  0  0  0
 25 49  1  0  0  0  0
M  END
> <Chemgauss4>
-9.035432

$$$$
