_1
  -OEChem-10142009433D

 49 53  0     1  0  0  0  0  0999 V2000
  -18.8322  -44.6754  -15.7368 C   0  0  0  0  0  0  0  0  0  0  0  0
  -17.2495  -40.7595  -10.7818 C   0  0  0  0  0  0  0  0  0  0  0  0
  -20.3080  -45.6698  -14.1774 C   0  0  0  0  0  0  0  0  0  0  0  0
  -17.2969  -42.0835  -11.2589 C   0  0  0  0  0  0  0  0  0  0  0  0
  -17.7355  -45.2073  -15.0368 C   0  0  0  0  0  0  0  0  0  0  0  0
  -20.1330  -44.9023  -15.3085 C   0  0  0  0  0  0  0  0  0  0  0  0
  -18.0211  -45.9451  -13.8712 C   0  0  0  0  0  0  0  0  0  0  0  0
  -16.7488  -42.0011  -12.5262 C   0  0  0  0  0  0  0  0  0  0  0  0
  -15.7534  -41.1266  -14.9572 C   0  0  0  0  0  0  0  0  0  0  0  0
  -15.9206  -40.2521  -13.9604 C   0  0  0  0  0  0  0  0  0  0  0  0
  -17.8704  -43.2561  -10.6213 C   0  0  0  0  0  0  0  0  0  0  0  0
  -16.1187  -42.5703  -14.6806 C   0  0  0  0  0  0  0  0  0  0  0  0
  -16.9266  -46.5454  -13.0195 C   0  0  0  0  0  0  0  0  0  0  0  0
  -17.2740  -46.8954  -11.5602 C   0  0  0  0  0  0  0  0  0  0  0  0
  -15.0028  -44.6711  -17.5220 C   0  0  0  0  0  0  0  0  0  0  0  0
  -16.1030  -45.5487  -16.9534 C   0  0  0  0  0  0  0  0  0  0  0  0
  -15.3485  -43.2854  -16.9919 C   0  0  0  0  0  0  0  0  0  0  0  0
  -16.3280  -44.9608  -15.5490 C   0  0  1  0  0  0  0  0  0  0  0  0
  -17.8340  -45.7608  -10.6703 C   0  0  1  0  0  0  0  0  0  0  0  0
  -17.6279  -46.1053   -9.1938 C   0  0  0  0  0  0  0  0  0  0  0  0
  -19.2927  -46.1961  -13.4617 N   0  0  0  0  0  0  0  0  0  0  0  0
  -16.6983  -39.9095  -11.6473 N   0  0  0  0  0  0  0  0  0  0  0  0
  -16.5704  -42.9352  -13.4977 N   0  0  0  0  0  0  0  0  0  0  0  0
  -16.4250  -40.6688  -12.7381 N   0  0  0  0  0  0  0  0  0  0  0  0
  -17.2692  -44.4532  -10.9872 N   0  0  0  0  0  0  0  0  0  0  0  0
  -15.9817  -43.5290  -15.6945 N   0  0  0  0  0  0  0  0  0  0  0  0
  -18.8119  -43.1569   -9.8394 O   0  0  0  0  0  0  0  0  0  0  0  0
  -21.1776  -44.4007  -15.9760 F   0  0  0  0  0  0  0  0  0  0  0  0
  -18.6769  -44.0763  -16.6310 H   0  0  0  0  0  0  0  0  0  0  0  0
  -17.5939  -40.3773   -9.8311 H   0  0  0  0  0  0  0  0  0  0  0  0
  -21.3012  -45.8887  -13.8003 H   0  0  0  0  0  0  0  0  0  0  0  0
  -15.3808  -40.8242  -15.9258 H   0  0  0  0  0  0  0  0  0  0  0  0
  -15.6913  -39.1989  -14.0695 H   0  0  0  0  0  0  0  0  0  0  0  0
  -16.5846  -47.4600  -13.5203 H   0  0  0  0  0  0  0  0  0  0  0  0
  -16.0666  -45.8706  -12.9829 H   0  0  0  0  0  0  0  0  0  0  0  0
  -17.9931  -47.7254  -11.5510 H   0  0  0  0  0  0  0  0  0  0  0  0
  -16.3565  -47.2898  -11.1027 H   0  0  0  0  0  0  0  0  0  0  0  0
  -14.0275  -44.9912  -17.1363 H   0  0  0  0  0  0  0  0  0  0  0  0
  -14.9683  -44.7030  -18.6146 H   0  0  0  0  0  0  0  0  0  0  0  0
  -16.9920  -45.4783  -17.5905 H   0  0  0  0  0  0  0  0  0  0  0  0
  -15.8060  -46.6018  -16.9136 H   0  0  0  0  0  0  0  0  0  0  0  0
  -14.4393  -42.6818  -16.9081 H   0  0  0  0  0  0  0  0  0  0  0  0
  -16.0575  -42.7795  -17.6562 H   0  0  0  0  0  0  0  0  0  0  0  0
  -15.5723  -45.4024  -14.8939 H   0  0  0  0  0  0  0  0  0  0  0  0
  -18.9143  -45.6811  -10.8432 H   0  0  0  0  0  0  0  0  0  0  0  0
  -16.5643  -46.1930   -8.9832 H   0  0  0  0  0  0  0  0  0  0  0  0
  -18.1179  -47.0494   -8.9662 H   0  0  0  0  0  0  0  0  0  0  0  0
  -18.0536  -45.3208   -8.5719 H   0  0  0  0  0  0  0  0  0  0  0  0
  -16.4091  -44.4235  -11.5251 H   0  0  0  0  0  0  0  0  0  0  0  0
  1  5  1  0  0  0  0
  1  6  2  0  0  0  0
  2  4  1  0  0  0  0
  2 22  2  0  0  0  0
  3  6  1  0  0  0  0
  3 21  2  0  0  0  0
  4  8  2  0  0  0  0
  4 11  1  0  0  0  0
  5  7  2  0  0  0  0
  5 18  1  0  0  0  0
  6 28  1  0  0  0  0
  7 13  1  0  0  0  0
  7 21  1  0  0  0  0
  8 23  1  0  0  0  0
  8 24  1  0  0  0  0
  9 10  2  0  0  0  0
  9 12  1  0  0  0  0
 10 24  1  0  0  0  0
 11 25  1  0  0  0  0
 11 27  2  0  0  0  0
 12 23  2  0  0  0  0
 12 26  1  0  0  0  0
 13 14  1  0  0  0  0
 14 19  1  0  0  0  0
 15 16  1  0  0  0  0
 15 17  1  0  0  0  0
 16 18  1  0  0  0  0
 17 26  1  0  0  0  0
 18 26  1  0  0  0  0
 19 20  1  0  0  0  0
 19 25  1  0  0  0  0
 22 24  1  0  0  0  0
  1 29  1  0  0  0  0
  2 30  1  0  0  0  0
  3 31  1  0  0  0  0
  9 32  1  0  0  0  0
 10 33  1  0  0  0  0
 13 34  1  0  0  0  0
 13 35  1  0  0  0  0
 14 36  1  0  0  0  0
 14 37  1  0  0  0  0
 15 38  1  0  0  0  0
 15 39  1  0  0  0  0
 16 40  1  0  0  0  0
 16 41  1  0  0  0  0
 17 42  1  0  0  0  0
 17 43  1  0  0  0  0
 18 44  1  1  0  0  0
 19 45  1  6  0  0  0
 20 46  1  0  0  0  0
 20 47  1  0  0  0  0
 20 48  1  0  0  0  0
 25 49  1  0  0  0  0
M  END
> <Chemgauss4>
-14.966069

$$$$
