_1
  -OEChem-10142009223D

 53 57  0     1  0  0  0  0  0999 V2000
  -20.3860  -45.6333  -15.6426 C   0  0  0  0  0  0  0  0  0  0  0  0
  -19.4687  -46.5590  -15.1454 C   0  0  0  0  0  0  0  0  0  0  0  0
  -18.5711  -44.1515  -16.2320 C   0  0  0  0  0  0  0  0  0  0  0  0
  -17.0942  -41.2330  -10.5710 C   0  0  0  0  0  0  0  0  0  0  0  0
  -17.6538  -45.0772  -15.7347 C   0  0  0  0  0  0  0  0  0  0  0  0
  -17.2472  -42.4552  -11.2390 C   0  0  0  0  0  0  0  0  0  0  0  0
  -19.9372  -44.4295  -16.1860 C   0  0  0  0  0  0  0  0  0  0  0  0
  -18.1026  -46.2810  -15.1914 C   0  0  0  0  0  0  0  0  0  0  0  0
  -16.7177  -42.2415  -12.4915 C   0  0  0  0  0  0  0  0  0  0  0  0
  -15.5334  -41.1381  -14.7407 C   0  0  0  0  0  0  0  0  0  0  0  0
  -15.6905  -40.3863  -13.6478 C   0  0  0  0  0  0  0  0  0  0  0  0
  -16.0256  -42.5581  -14.6561 C   0  0  0  0  0  0  0  0  0  0  0  0
  -18.3797  -43.8960   -9.5009 C   0  0  0  0  0  0  0  0  0  0  0  0
  -15.4861  -44.0126  -17.9741 C   0  0  0  0  0  0  0  0  0  0  0  0
  -15.5104  -45.2510  -17.0878 C   0  0  0  0  0  0  0  0  0  0  0  0
  -20.1492  -46.9599   -8.4369 C   0  0  0  0  0  0  0  0  0  0  0  0
  -15.2684  -42.8716  -16.9886 C   0  0  0  0  0  0  0  0  0  0  0  0
  -19.4848  -45.6337   -8.0966 C   0  0  0  0  0  0  0  0  0  0  0  0
  -18.8041  -46.2964  -10.3094 C   0  0  0  0  0  0  0  0  0  0  0  0
  -16.1690  -44.7720  -15.7854 C   0  0  1  0  0  0  0  0  0  0  0  0
  -19.2552  -47.5280   -9.5345 C   0  0  1  0  0  0  0  0  0  0  0  0
  -16.5149  -40.3001  -11.3258 N   0  0  0  0  0  0  0  0  0  0  0  0
  -16.5844  -43.0552  -13.5751 N   0  0  0  0  0  0  0  0  0  0  0  0
  -16.2810  -40.9205  -12.5114 N   0  0  0  0  0  0  0  0  0  0  0  0
  -15.8762  -43.3366  -15.7479 N   0  0  0  0  0  0  0  0  0  0  0  0
  -18.8570  -45.2025   -9.3371 N   0  0  0  0  0  0  0  0  0  0  0  0
  -17.8164  -43.6590  -10.7553 N   0  0  0  0  0  0  0  0  0  0  0  0
  -18.4749  -43.0628   -8.5978 O   0  0  0  0  0  0  0  0  0  0  0  0
  -18.1166  -48.1606   -8.9616 O   0  0  0  0  0  0  0  0  0  0  0  0
  -20.8181  -43.5410  -16.6640 F   0  0  0  0  0  0  0  0  0  0  0  0
  -17.2285  -47.1762  -14.7111 F   0  0  0  0  0  0  0  0  0  0  0  0
  -21.4495  -45.8502  -15.6088 H   0  0  0  0  0  0  0  0  0  0  0  0
  -19.8181  -47.4960  -14.7218 H   0  0  0  0  0  0  0  0  0  0  0  0
  -18.2313  -43.2111  -16.6575 H   0  0  0  0  0  0  0  0  0  0  0  0
  -17.3815  -40.9767   -9.5611 H   0  0  0  0  0  0  0  0  0  0  0  0
  -15.0803  -40.7726  -15.6526 H   0  0  0  0  0  0  0  0  0  0  0  0
  -15.3712  -39.3520  -13.6029 H   0  0  0  0  0  0  0  0  0  0  0  0
  -14.7017  -44.0622  -18.7347 H   0  0  0  0  0  0  0  0  0  0  0  0
  -16.4506  -43.8937  -18.4818 H   0  0  0  0  0  0  0  0  0  0  0  0
  -16.0276  -46.0883  -17.5673 H   0  0  0  0  0  0  0  0  0  0  0  0
  -14.4782  -45.5607  -16.8808 H   0  0  0  0  0  0  0  0  0  0  0  0
  -20.2164  -47.6104   -7.5599 H   0  0  0  0  0  0  0  0  0  0  0  0
  -21.1566  -46.7779   -8.8288 H   0  0  0  0  0  0  0  0  0  0  0  0
  -14.1970  -42.6960  -16.8277 H   0  0  0  0  0  0  0  0  0  0  0  0
  -15.7245  -41.9408  -17.3463 H   0  0  0  0  0  0  0  0  0  0  0  0
  -20.1915  -44.8813   -7.7339 H   0  0  0  0  0  0  0  0  0  0  0  0
  -18.6928  -45.7604   -7.3502 H   0  0  0  0  0  0  0  0  0  0  0  0
  -17.7927  -46.3861  -10.7167 H   0  0  0  0  0  0  0  0  0  0  0  0
  -19.5076  -46.0486  -11.1113 H   0  0  0  0  0  0  0  0  0  0  0  0
  -15.6897  -45.2936  -14.9130 H   0  0  0  0  0  0  0  0  0  0  0  0
  -19.7770  -48.2544  -10.1639 H   0  0  0  0  0  0  0  0  0  0  0  0
  -17.8060  -44.4374  -11.4749 H   0  0  0  0  0  0  0  0  0  0  0  0
  -17.5865  -48.5014   -9.6996 H   0  0  0  0  0  0  0  0  0  0  0  0
  1  2  2  0  0  0  0
  1  7  1  0  0  0  0
  2  8  1  0  0  0  0
  3  5  1  0  0  0  0
  3  7  2  0  0  0  0
  4  6  1  0  0  0  0
  4 22  2  0  0  0  0
  5  8  2  0  0  0  0
  5 20  1  0  0  0  0
  6  9  2  0  0  0  0
  6 27  1  0  0  0  0
  7 30  1  0  0  0  0
  8 31  1  0  0  0  0
  9 23  1  0  0  0  0
  9 24  1  0  0  0  0
 10 11  2  0  0  0  0
 10 12  1  0  0  0  0
 11 24  1  0  0  0  0
 12 23  2  0  0  0  0
 12 25  1  0  0  0  0
 13 26  1  0  0  0  0
 13 27  1  0  0  0  0
 13 28  2  0  0  0  0
 14 15  1  0  0  0  0
 14 17  1  0  0  0  0
 15 20  1  0  0  0  0
 16 18  1  0  0  0  0
 16 21  1  0  0  0  0
 17 25  1  0  0  0  0
 18 26  1  0  0  0  0
 19 21  1  0  0  0  0
 19 26  1  0  0  0  0
 20 25  1  0  0  0  0
 21 29  1  0  0  0  0
 22 24  1  0  0  0  0
  1 32  1  0  0  0  0
  2 33  1  0  0  0  0
  3 34  1  0  0  0  0
  4 35  1  0  0  0  0
 10 36  1  0  0  0  0
 11 37  1  0  0  0  0
 14 38  1  0  0  0  0
 14 39  1  0  0  0  0
 15 40  1  0  0  0  0
 15 41  1  0  0  0  0
 16 42  1  0  0  0  0
 16 43  1  0  0  0  0
 17 44  1  0  0  0  0
 17 45  1  0  0  0  0
 18 46  1  0  0  0  0
 18 47  1  0  0  0  0
 19 48  1  0  0  0  0
 19 49  1  0  0  0  0
 20 50  1  6  0  0  0
 21 51  1  1  0  0  0
 27 52  1  0  0  0  0
 29 53  1  0  0  0  0
M  END
> <Chemgauss4>
-14.952768

$$$$
