UNL
  -OEChem-02102117143D

 53 57  0     1  0  0  0  0  0999 V2000
   20.6927  -21.4224   30.2071 C   0  0  0  0  0  0  0  0  0  0  0  0
   19.7398  -20.8201   29.3856 C   0  0  0  0  0  0  0  0  0  0  0  0
   19.3461  -20.9086   32.1461 C   0  0  0  0  0  0  0  0  0  0  0  0
   20.2033  -14.2014   30.6536 C   0  0  0  0  0  0  0  0  0  0  0  0
   18.3932  -20.3062   31.3246 C   0  0  0  0  0  0  0  0  0  0  0  0
   20.1456  -15.5850   30.4395 C   0  0  0  0  0  0  0  0  0  0  0  0
   20.4959  -21.4667   31.5873 C   0  0  0  0  0  0  0  0  0  0  0  0
   18.5900  -20.2620   29.9444 C   0  0  0  0  0  0  0  0  0  0  0  0
   19.2495  -16.0498   31.3753 C   0  0  0  0  0  0  0  0  0  0  0  0
   17.4148  -16.2730   33.4400 C   0  0  0  0  0  0  0  0  0  0  0  0
   17.9025  -15.0701   33.1245 C   0  0  0  0  0  0  0  0  0  0  0  0
   17.9159  -17.4360   32.6262 C   0  0  0  0  0  0  0  0  0  0  0  0
   21.7729  -15.9174   28.5364 C   0  0  0  0  0  0  0  0  0  0  0  0
   16.7344  -20.5453   34.1598 C   0  0  0  0  0  0  0  0  0  0  0  0
   16.3052  -20.7267   32.7097 C   0  0  0  0  0  0  0  0  0  0  0  0
   23.3112  -18.9944   27.2053 C   0  0  0  0  0  0  0  0  0  0  0  0
   17.0141  -19.0516   34.2659 C   0  0  0  0  0  0  0  0  0  0  0  0
   22.4165  -18.3064   28.2208 C   0  0  0  0  0  0  0  0  0  0  0  0
   22.7347  -16.8383   26.3438 C   0  0  0  0  0  0  0  0  0  0  0  0
   17.1443  -19.6996   31.9349 C   0  0  1  0  0  0  0  0  0  0  0  0
   22.9743  -18.2765   25.9030 C   0  0  1  0  0  0  0  0  0  0  0  0
   19.4121  -13.7984   31.6472 N   0  0  0  0  0  0  0  0  0  0  0  0
   18.7876  -17.3006   31.6517 N   0  0  0  0  0  0  0  0  0  0  0  0
   18.8219  -14.9375   32.0936 N   0  0  0  0  0  0  0  0  0  0  0  0
   17.4361  -18.6608   32.9265 N   0  0  3  0  0  0  0  0  0  0  0  0
   22.2836  -16.9418   27.7298 N   0  0  0  0  0  0  0  0  0  0  0  0
   20.8438  -16.3584   29.4795 N   0  0  0  0  0  0  0  0  0  0  0  0
   22.1336  -14.7482   28.3894 O   0  0  0  0  0  0  0  0  0  0  0  0
   24.0487  -18.3746   24.9896 O   0  0  0  0  0  0  0  0  0  0  0  0
   21.4107  -22.0457   32.3758 F   0  0  0  0  0  0  0  0  0  0  0  0
   17.6799  -19.6851   29.1475 F   0  0  0  0  0  0  0  0  0  0  0  0
   21.5871  -21.8587   29.7723 H   0  0  0  0  0  0  0  0  0  0  0  0
   19.8933  -20.7851   28.3111 H   0  0  0  0  0  0  0  0  0  0  0  0
   19.2017  -20.9483   33.2223 H   0  0  0  0  0  0  0  0  0  0  0  0
   20.7912  -13.4623   30.1279 H   0  0  0  0  0  0  0  0  0  0  0  0
   16.6971  -16.4331   34.2336 H   0  0  0  0  0  0  0  0  0  0  0  0
   17.6080  -14.1681   33.6474 H   0  0  0  0  0  0  0  0  0  0  0  0
   15.9662  -20.8769   34.8643 H   0  0  0  0  0  0  0  0  0  0  0  0
   17.6502  -21.1154   34.3557 H   0  0  0  0  0  0  0  0  0  0  0  0
   16.4374  -21.7586   32.3690 H   0  0  0  0  0  0  0  0  0  0  0  0
   15.2420  -20.4707   32.6187 H   0  0  0  0  0  0  0  0  0  0  0  0
   24.3673  -18.9113   27.4787 H   0  0  0  0  0  0  0  0  0  0  0  0
   23.0406  -20.0541   27.1311 H   0  0  0  0  0  0  0  0  0  0  0  0
   16.1025  -18.5037   34.5368 H   0  0  0  0  0  0  0  0  0  0  0  0
   17.7841  -18.8407   35.0175 H   0  0  0  0  0  0  0  0  0  0  0  0
   21.4367  -18.7816   28.3225 H   0  0  0  0  0  0  0  0  0  0  0  0
   22.8887  -18.2583   29.2081 H   0  0  0  0  0  0  0  0  0  0  0  0
   23.6308  -16.2123   26.2864 H   0  0  0  0  0  0  0  0  0  0  0  0
   21.9220  -16.3757   25.7729 H   0  0  0  0  0  0  0  0  0  0  0  0
   16.5438  -19.2868   31.1109 H   0  0  0  0  0  0  0  0  0  0  0  0
   22.0828  -18.7143   25.4302 H   0  0  0  0  0  0  0  0  0  0  0  0
   20.6255  -17.3328   29.5330 H   0  0  0  0  0  0  0  0  0  0  0  0
   23.9208  -17.6899   24.3435 H   0  0  0  0  0  0  0  0  0  0  0  0
  1 32  1  0  0  0  0
  1  2  2  0  0  0  0
  1  7  1  0  0  0  0
  2 33  1  0  0  0  0
  2  8  1  0  0  0  0
  3 34  1  0  0  0  0
  3  5  1  0  0  0  0
  3  7  2  0  0  0  0
  4 35  1  0  0  0  0
  4  6  1  0  0  0  0
  4 22  2  0  0  0  0
  5  8  2  0  0  0  0
  5 20  1  0  0  0  0
  6  9  2  0  0  0  0
  6 27  1  0  0  0  0
  7 30  1  0  0  0  0
  8 31  1  0  0  0  0
  9 23  1  0  0  0  0
  9 24  1  0  0  0  0
 10 36  1  0  0  0  0
 10 11  2  0  0  0  0
 10 12  1  0  0  0  0
 11 37  1  0  0  0  0
 11 24  1  0  0  0  0
 12 23  2  0  0  0  0
 12 25  1  1  0  0  0
 13 26  1  0  0  0  0
 13 27  1  0  0  0  0
 13 28  2  0  0  0  0
 14 38  1  0  0  0  0
 14 39  1  0  0  0  0
 14 15  1  0  0  0  0
 14 17  1  0  0  0  0
 15 40  1  0  0  0  0
 15 41  1  0  0  0  0
 15 20  1  0  0  0  0
 16 42  1  0  0  0  0
 16 43  1  0  0  0  0
 16 18  1  0  0  0  0
 16 21  1  0  0  0  0
 17 44  1  0  0  0  0
 17 45  1  0  0  0  0
 17 25  1  0  0  0  0
 18 46  1  0  0  0  0
 18 47  1  0  0  0  0
 18 26  1  0  0  0  0
 19 48  1  0  0  0  0
 19 49  1  0  0  0  0
 19 21  1  0  0  0  0
 19 26  1  0  0  0  0
 20 50  1  6  0  0  0
 20 25  1  0  0  0  0
 21 51  1  1  0  0  0
 21 29  1  0  0  0  0
 22 24  1  0  0  0  0
 27 52  1  0  0  0  0
 29 53  1  0  0  0  0
M  END
> <Chemgauss4>
-14.668984

> <bio:pdb:part:site>
1

> <bio:pdb:part:order>
1

> <bio:pdb:ligand>
true

$$$$
