UNL
  -OEChem-02102117053D

 49 53  0     1  0  0  0  0  0999 V2000
  -20.3776  -45.4653  -11.5064 C   0  0  0  0  0  0  0  0  0  0  0  0
  -18.9283  -45.0306  -11.7325 C   0  0  2  0  0  0  0  0  0  0  0  0
  -18.0840  -46.1296  -12.3979 C   0  0  0  0  0  0  0  0  0  0  0  0
  -18.5407  -46.6009  -13.7819 C   0  0  0  0  0  0  0  0  0  0  0  0
  -18.8142  -45.5121  -14.7905 C   0  0  0  0  0  0  0  0  0  0  0  0
  -20.1429  -45.2658  -14.9977 N   0  0  0  0  0  0  0  0  0  0  0  0
  -20.4857  -44.3060  -15.8923 C   0  0  0  0  0  0  0  0  0  0  0  0
  -19.5632  -43.5732  -16.6022 C   0  0  0  0  0  0  0  0  0  0  0  0
  -19.9514  -42.6367  -17.4767 F   0  0  0  0  0  0  0  0  0  0  0  0
  -18.2188  -43.8246  -16.3929 C   0  0  0  0  0  0  0  0  0  0  0  0
  -17.8073  -44.8072  -15.4670 C   0  0  0  0  0  0  0  0  0  0  0  0
  -16.3262  -45.0532  -15.2446 C   0  0  1  0  0  0  0  0  0  0  0  0
  -15.6546  -45.6805  -16.4796 C   0  0  0  0  0  0  0  0  0  0  0  0
  -14.2488  -45.1069  -16.4399 C   0  0  0  0  0  0  0  0  0  0  0  0
  -14.4822  -43.6740  -15.9792 C   0  0  0  0  0  0  0  0  0  0  0  0
  -15.5966  -43.7847  -15.0389 N   0  0  3  0  0  0  0  0  0  0  0  0
  -15.9079  -42.8584  -14.0624 C   0  0  0  0  0  0  0  0  0  0  0  0
  -15.5562  -41.4116  -14.2829 C   0  0  0  0  0  0  0  0  0  0  0  0
  -15.9621  -40.5397  -13.3545 C   0  0  0  0  0  0  0  0  0  0  0  0
  -16.6262  -40.9806  -12.2227 N   0  0  0  0  0  0  0  0  0  0  0  0
  -17.0722  -40.2210  -11.1849 N   0  0  0  0  0  0  0  0  0  0  0  0
  -17.5025  -41.1176  -10.2984 C   0  0  0  0  0  0  0  0  0  0  0  0
  -17.4189  -42.4541  -10.7536 C   0  0  0  0  0  0  0  0  0  0  0  0
  -16.8759  -42.3470  -12.0250 C   0  0  0  0  0  0  0  0  0  0  0  0
  -16.5300  -43.2721  -12.9769 N   0  0  0  0  0  0  0  0  0  0  0  0
  -17.7309  -43.6043   -9.9325 C   0  0  0  0  0  0  0  0  0  0  0  0
  -17.4818  -43.5878   -8.7227 O   0  0  0  0  0  0  0  0  0  0  0  0
  -18.3358  -44.7262  -10.4266 N   0  0  0  0  0  0  0  0  0  0  0  0
  -20.9319  -44.6876  -10.9687 H   0  0  0  0  0  0  0  0  0  0  0  0
  -20.9011  -45.6523  -12.4468 H   0  0  0  0  0  0  0  0  0  0  0  0
  -20.4278  -46.3786  -10.9027 H   0  0  0  0  0  0  0  0  0  0  0  0
  -18.9398  -44.1225  -12.3387 H   0  0  0  0  0  0  0  0  0  0  0  0
  -18.0553  -47.0096  -11.7400 H   0  0  0  0  0  0  0  0  0  0  0  0
  -17.0442  -45.7909  -12.4471 H   0  0  0  0  0  0  0  0  0  0  0  0
  -17.8017  -47.2980  -14.1960 H   0  0  0  0  0  0  0  0  0  0  0  0
  -19.4527  -47.2008  -13.6623 H   0  0  0  0  0  0  0  0  0  0  0  0
  -21.5490  -44.1366  -16.0296 H   0  0  0  0  0  0  0  0  0  0  0  0
  -17.4888  -43.2443  -16.9518 H   0  0  0  0  0  0  0  0  0  0  0  0
  -16.1288  -45.6952  -14.3836 H   0  0  0  0  0  0  0  0  0  0  0  0
  -16.1425  -45.3850  -17.4163 H   0  0  0  0  0  0  0  0  0  0  0  0
  -15.6618  -46.7745  -16.4380 H   0  0  0  0  0  0  0  0  0  0  0  0
  -13.6445  -45.6484  -15.7020 H   0  0  0  0  0  0  0  0  0  0  0  0
  -13.7402  -45.1592  -17.4064 H   0  0  0  0  0  0  0  0  0  0  0  0
  -13.5827  -43.2665  -15.5067 H   0  0  0  0  0  0  0  0  0  0  0  0
  -14.7674  -43.0350  -16.8222 H   0  0  0  0  0  0  0  0  0  0  0  0
  -15.0378  -41.1092  -15.1814 H   0  0  0  0  0  0  0  0  0  0  0  0
  -15.7870  -39.4752  -13.4258 H   0  0  0  0  0  0  0  0  0  0  0  0
  -17.8631  -40.7759   -9.3343 H   0  0  0  0  0  0  0  0  0  0  0  0
  -18.4330  -45.4369   -9.7298 H   0  0  0  0  0  0  0  0  0  0  0  0
  1  2  1  0  0  0  0
  1 29  1  0  0  0  0
  1 30  1  0  0  0  0
  1 31  1  0  0  0  0
  2 28  1  0  0  0  0
  2  3  1  0  0  0  0
  2 32  1  6  0  0  0
  3  4  1  0  0  0  0
  3 33  1  0  0  0  0
  3 34  1  0  0  0  0
  4  5  1  0  0  0  0
  4 35  1  0  0  0  0
  4 36  1  0  0  0  0
  5 11  2  0  0  0  0
  5  6  1  0  0  0  0
  6  7  2  0  0  0  0
  7  8  1  0  0  0  0
  7 37  1  0  0  0  0
  8  9  1  0  0  0  0
  8 10  2  0  0  0  0
 10 11  1  0  0  0  0
 10 38  1  0  0  0  0
 11 12  1  0  0  0  0
 12 16  1  0  0  0  0
 12 13  1  0  0  0  0
 12 39  1  1  0  0  0
 13 14  1  0  0  0  0
 13 40  1  0  0  0  0
 13 41  1  0  0  0  0
 14 15  1  0  0  0  0
 14 42  1  0  0  0  0
 14 43  1  0  0  0  0
 15 16  1  0  0  0  0
 15 44  1  0  0  0  0
 15 45  1  0  0  0  0
 16 17  1  0  0  0  0
 17 25  2  0  0  0  0
 17 18  1  0  0  0  0
 18 19  2  0  0  0  0
 18 46  1  0  0  0  0
 19 20  1  0  0  0  0
 19 47  1  0  0  0  0
 20 24  1  0  0  0  0
 20 21  1  0  0  0  0
 21 22  2  0  0  0  0
 22 23  1  0  0  0  0
 22 48  1  0  0  0  0
 23 24  2  0  0  0  0
 23 26  1  0  0  0  0
 24 25  1  0  0  0  0
 26 27  2  0  0  0  0
 26 28  1  0  0  0  0
 28 49  1  0  0  0  0
M  END
> <Chemgauss4>
-9.910630

> <bio:pdb:part:site>
1

> <bio:pdb:part:order>
1

> <bio:pdb:ligand>
true

$$$$
