_1
  -OEChem-10192010253D

 53 57  0     1  0  0  0  0  0999 V2000
  -20.3159  -45.4980  -15.4518 C   0  0  0  0  0  0  0  0  0  0  0  0
  -19.3781  -46.3635  -14.8888 C   0  0  0  0  0  0  0  0  0  0  0  0
  -18.5363  -44.0122  -16.1320 C   0  0  0  0  0  0  0  0  0  0  0  0
  -17.1766  -40.6772  -10.6778 C   0  0  0  0  0  0  0  0  0  0  0  0
  -17.5985  -44.8777  -15.5690 C   0  0  0  0  0  0  0  0  0  0  0  0
  -17.2921  -41.9460  -11.2613 C   0  0  0  0  0  0  0  0  0  0  0  0
  -19.8950  -44.3223  -16.0734 C   0  0  0  0  0  0  0  0  0  0  0  0
  -18.0194  -46.0534  -14.9474 C   0  0  0  0  0  0  0  0  0  0  0  0
  -16.7596  -41.8041  -12.5227 C   0  0  0  0  0  0  0  0  0  0  0  0
  -15.5891  -40.8253  -14.8359 C   0  0  0  0  0  0  0  0  0  0  0  0
  -15.7740  -40.0051  -13.7979 C   0  0  0  0  0  0  0  0  0  0  0  0
  -16.0438  -42.2491  -14.6568 C   0  0  0  0  0  0  0  0  0  0  0  0
  -18.3982  -43.2944   -9.4345 C   0  0  0  0  0  0  0  0  0  0  0  0
  -15.4459  -43.9101  -17.8655 C   0  0  0  0  0  0  0  0  0  0  0  0
  -15.4436  -45.0863  -16.8978 C   0  0  0  0  0  0  0  0  0  0  0  0
  -19.1565  -46.9448   -9.2220 C   0  0  0  0  0  0  0  0  0  0  0  0
  -15.2618  -42.7005  -16.9583 C   0  0  0  0  0  0  0  0  0  0  0  0
  -18.7623  -45.7493  -10.0808 C   0  0  0  0  0  0  0  0  0  0  0  0
  -19.4684  -44.9624   -7.9171 C   0  0  0  0  0  0  0  0  0  0  0  0
  -16.1219  -44.5378  -15.6335 C   0  0  1  0  0  0  0  0  0  0  0  0
  -20.0707  -46.3381   -8.1634 C   0  0  1  0  0  0  0  0  0  0  0  0
  -16.6170  -39.7827  -11.4917 N   0  0  0  0  0  0  0  0  0  0  0  0
  -16.5969  -42.6861  -13.5473 N   0  0  0  0  0  0  0  0  0  0  0  0
  -16.3582  -40.4762  -12.6307 N   0  0  0  0  0  0  0  0  0  0  0  0
  -15.8659  -43.0961  -15.6919 N   0  0  1  0  0  0  0  0  0  0  0  0
  -18.8417  -44.5990   -9.1837 N   0  0  0  0  0  0  0  0  0  0  0  0
  -17.8325  -43.1288  -10.6993 N   0  0  0  0  0  0  0  0  0  0  0  0
  -18.5222  -42.4040   -8.5915 O   0  0  0  0  0  0  0  0  0  0  0  0
  -21.3843  -46.2082   -8.6935 O   0  0  0  0  0  0  0  0  0  0  0  0
  -20.7957  -43.4916  -16.6145 F   0  0  0  0  0  0  0  0  0  0  0  0
  -17.1254  -46.8908  -14.4036 F   0  0  0  0  0  0  0  0  0  0  0  0
  -21.3737  -45.7399  -15.4081 H   0  0  0  0  0  0  0  0  0  0  0  0
  -19.7058  -47.2786  -14.4043 H   0  0  0  0  0  0  0  0  0  0  0  0
  -18.2184  -43.0942  -16.6187 H   0  0  0  0  0  0  0  0  0  0  0  0
  -17.4778  -40.3604   -9.6894 H   0  0  0  0  0  0  0  0  0  0  0  0
  -15.1394  -40.5109  -15.7683 H   0  0  0  0  0  0  0  0  0  0  0  0
  -15.4827  -38.9619  -13.8224 H   0  0  0  0  0  0  0  0  0  0  0  0
  -14.6573  -43.9908  -18.6191 H   0  0  0  0  0  0  0  0  0  0  0  0
  -16.4104  -43.8499  -18.3832 H   0  0  0  0  0  0  0  0  0  0  0  0
  -15.9367  -45.9670  -17.3219 H   0  0  0  0  0  0  0  0  0  0  0  0
  -14.4054  -45.3549  -16.6661 H   0  0  0  0  0  0  0  0  0  0  0  0
  -19.6473  -47.7204   -9.8191 H   0  0  0  0  0  0  0  0  0  0  0  0
  -18.2619  -47.3690   -8.7495 H   0  0  0  0  0  0  0  0  0  0  0  0
  -14.1962  -42.4874  -16.8042 H   0  0  0  0  0  0  0  0  0  0  0  0
  -15.7393  -41.8081  -17.3797 H   0  0  0  0  0  0  0  0  0  0  0  0
  -17.7598  -45.8407  -10.5082 H   0  0  0  0  0  0  0  0  0  0  0  0
  -19.4780  -45.5839  -10.8933 H   0  0  0  0  0  0  0  0  0  0  0  0
  -20.2100  -44.2086   -7.6344 H   0  0  0  0  0  0  0  0  0  0  0  0
  -18.6749  -45.0030   -7.1627 H   0  0  0  0  0  0  0  0  0  0  0  0
  -15.6346  -44.9863  -14.7257 H   0  0  0  0  0  0  0  0  0  0  0  0
  -20.1186  -46.9508   -7.2589 H   0  0  0  0  0  0  0  0  0  0  0  0
  -17.7962  -43.9540  -11.3637 H   0  0  0  0  0  0  0  0  0  0  0  0
  -21.9310  -45.8206   -7.9917 H   0  0  0  0  0  0  0  0  0  0  0  0
  1  2  2  0  0  0  0
  1  7  1  0  0  0  0
  2  8  1  0  0  0  0
  3  5  1  0  0  0  0
  3  7  2  0  0  0  0
  4  6  1  0  0  0  0
  4 22  2  0  0  0  0
  5  8  2  0  0  0  0
  5 20  1  0  0  0  0
  6  9  2  0  0  0  0
  6 27  1  0  0  0  0
  7 30  1  0  0  0  0
  8 31  1  0  0  0  0
  9 23  1  0  0  0  0
  9 24  1  0  0  0  0
 10 11  2  0  0  0  0
 10 12  1  0  0  0  0
 11 24  1  0  0  0  0
 12 23  2  0  0  0  0
 12 25  1  6  0  0  0
 13 26  1  0  0  0  0
 13 27  1  0  0  0  0
 13 28  2  0  0  0  0
 14 15  1  0  0  0  0
 14 17  1  0  0  0  0
 15 20  1  0  0  0  0
 16 18  1  0  0  0  0
 16 21  1  0  0  0  0
 17 25  1  0  0  0  0
 18 26  1  0  0  0  0
 19 21  1  0  0  0  0
 19 26  1  0  0  0  0
 20 25  1  0  0  0  0
 21 29  1  0  0  0  0
 22 24  1  0  0  0  0
  1 32  1  0  0  0  0
  2 33  1  0  0  0  0
  3 34  1  0  0  0  0
  4 35  1  0  0  0  0
 10 36  1  0  0  0  0
 11 37  1  0  0  0  0
 14 38  1  0  0  0  0
 14 39  1  0  0  0  0
 15 40  1  0  0  0  0
 15 41  1  0  0  0  0
 16 42  1  0  0  0  0
 16 43  1  0  0  0  0
 17 44  1  0  0  0  0
 17 45  1  0  0  0  0
 18 46  1  0  0  0  0
 18 47  1  0  0  0  0
 19 48  1  0  0  0  0
 19 49  1  0  0  0  0
 20 50  1  6  0  0  0
 21 51  1  1  0  0  0
 27 52  1  0  0  0  0
 29 53  1  0  0  0  0
M  END
> <Chemgauss4>
-16.027346

$$$$
