_1
  -OEChem-10192012173D

 44 47  0     1  0  0  0  0  0999 V2000
   -8.4035   23.0267  -17.0454 C   0  0  0  0  0  0  0  0  0  0  0  0
   -8.9569   22.3022  -18.1023 C   0  0  0  0  0  0  0  0  0  0  0  0
   -8.1883   23.9758  -19.6481 C   0  0  0  0  0  0  0  0  0  0  0  0
  -11.4619   29.0350  -15.6286 C   0  0  0  0  0  0  0  0  0  0  0  0
  -10.3165   28.2169  -15.6552 C   0  0  0  0  0  0  0  0  0  0  0  0
   -7.6194   24.7259  -18.5982 C   0  0  0  0  0  0  0  0  0  0  0  0
   -7.7404   24.2420  -17.2729 C   0  0  0  0  0  0  0  0  0  0  0  0
   -8.8514   22.7762  -19.4025 C   0  0  0  0  0  0  0  0  0  0  0  0
   -9.9673   28.1956  -16.9908 C   0  0  0  0  0  0  0  0  0  0  0  0
   -9.7968   28.5185  -19.7351 C   0  0  0  0  0  0  0  0  0  0  0  0
  -10.7660   29.1431  -19.0537 C   0  0  0  0  0  0  0  0  0  0  0  0
   -9.6521   27.4868  -14.5832 C   0  0  0  0  0  0  0  0  0  0  0  0
   -8.8573   27.6553  -18.9333 C   0  0  0  0  0  0  0  0  0  0  0  0
   -7.5603   26.1358  -14.1806 C   0  0  0  0  0  0  0  0  0  0  0  0
   -6.9231   26.0412  -18.9321 C   0  0  1  0  0  0  0  0  0  0  0  0
   -7.5940   24.7812  -14.9123 C   0  0  2  0  0  0  0  0  0  0  0  0
   -5.6949   25.8263  -19.8200 C   0  0  0  0  0  0  0  0  0  0  0  0
   -6.6344   23.8152  -14.2194 C   0  0  0  0  0  0  0  0  0  0  0  0
  -11.7938   29.5174  -16.8293 N   0  0  0  0  0  0  0  0  0  0  0  0
   -8.9710   27.5385  -17.6330 N   0  0  0  0  0  0  0  0  0  0  0  0
  -10.8721   28.9879  -17.6754 N   0  0  0  0  0  0  0  0  0  0  0  0
   -8.3542   27.1131  -14.9002 N   0  0  0  0  0  0  0  0  0  0  0  0
   -7.8518   26.9631  -19.5957 N   0  0  0  0  0  0  0  0  0  0  0  0
  -10.2210   27.2279  -13.5272 O   0  0  0  0  0  0  0  0  0  0  0  0
   -7.1605   24.9870  -16.2718 O   0  0  0  0  0  0  0  0  0  0  0  0
   -9.3829   22.0822  -20.4172 F   0  0  0  0  0  0  0  0  0  0  0  0
   -8.5006   22.6015  -16.0517 H   0  0  0  0  0  0  0  0  0  0  0  0
   -9.4677   21.3637  -17.9067 H   0  0  0  0  0  0  0  0  0  0  0  0
   -8.1217   24.3280  -20.6750 H   0  0  0  0  0  0  0  0  0  0  0  0
  -12.0715   29.3066  -14.7783 H   0  0  0  0  0  0  0  0  0  0  0  0
   -9.6736   28.6035  -20.8064 H   0  0  0  0  0  0  0  0  0  0  0  0
  -11.4971   29.7796  -19.5374 H   0  0  0  0  0  0  0  0  0  0  0  0
   -7.9326   26.0365  -13.1560 H   0  0  0  0  0  0  0  0  0  0  0  0
   -6.5407   26.5354  -14.1543 H   0  0  0  0  0  0  0  0  0  0  0  0
   -6.5599   26.5223  -18.0167 H   0  0  0  0  0  0  0  0  0  0  0  0
   -8.6249   24.4095  -14.8658 H   0  0  0  0  0  0  0  0  0  0  0  0
   -5.9949   25.3486  -20.7499 H   0  0  0  0  0  0  0  0  0  0  0  0
   -4.9778   25.1912  -19.3049 H   0  0  0  0  0  0  0  0  0  0  0  0
   -5.2316   26.7851  -20.0417 H   0  0  0  0  0  0  0  0  0  0  0  0
   -5.6181   24.2011  -14.2763 H   0  0  0  0  0  0  0  0  0  0  0  0
   -6.6749   22.8427  -14.7068 H   0  0  0  0  0  0  0  0  0  0  0  0
   -6.9159   23.7028  -13.1738 H   0  0  0  0  0  0  0  0  0  0  0  0
   -7.9242   27.5614  -15.7033 H   0  0  0  0  0  0  0  0  0  0  0  0
   -7.7887   27.0316  -20.6084 H   0  0  0  0  0  0  0  0  0  0  0  0
  1  2  2  0  0  0  0
  1  7  1  0  0  0  0
  2  8  1  0  0  0  0
  3  6  1  0  0  0  0
  3  8  2  0  0  0  0
  4  5  1  0  0  0  0
  4 19  2  0  0  0  0
  5  9  2  0  0  0  0
  5 12  1  0  0  0  0
  6  7  2  0  0  0  0
  6 15  1  0  0  0  0
  7 25  1  0  0  0  0
  8 26  1  0  0  0  0
  9 20  1  0  0  0  0
  9 21  1  0  0  0  0
 10 11  2  0  0  0  0
 10 13  1  0  0  0  0
 11 21  1  0  0  0  0
 12 22  1  0  0  0  0
 12 24  2  0  0  0  0
 13 20  2  0  0  0  0
 13 23  1  0  0  0  0
 14 16  1  0  0  0  0
 14 22  1  0  0  0  0
 15 17  1  0  0  0  0
 15 23  1  0  0  0  0
 16 18  1  0  0  0  0
 16 25  1  0  0  0  0
 19 21  1  0  0  0  0
  1 27  1  0  0  0  0
  2 28  1  0  0  0  0
  3 29  1  0  0  0  0
  4 30  1  0  0  0  0
 10 31  1  0  0  0  0
 11 32  1  0  0  0  0
 14 33  1  0  0  0  0
 14 34  1  0  0  0  0
 15 35  1  1  0  0  0
 16 36  1  1  0  0  0
 17 37  1  0  0  0  0
 17 38  1  0  0  0  0
 17 39  1  0  0  0  0
 18 40  1  0  0  0  0
 18 41  1  0  0  0  0
 18 42  1  0  0  0  0
 22 43  1  0  0  0  0
 23 44  1  0  0  0  0
M  END
> <Chemgauss4>
-1.382001

$$$$
