_1
  -OEChem-10142014473D

 44 47  0     1  0  0  0  0  0999 V2000
   10.8445  -25.4182  -18.1845 C   0  0  0  0  0  0  0  0  0  0  0  0
   12.1900  -25.0553  -18.1067 C   0  0  0  0  0  0  0  0  0  0  0  0
   12.7753  -27.3389  -17.6335 C   0  0  0  0  0  0  0  0  0  0  0  0
    7.9317  -27.3493  -12.2476 C   0  0  0  0  0  0  0  0  0  0  0  0
    8.0223  -27.4208  -13.6507 C   0  0  0  0  0  0  0  0  0  0  0  0
   11.4230  -27.7314  -17.7081 C   0  0  0  0  0  0  0  0  0  0  0  0
   10.4424  -26.7466  -17.9799 C   0  0  0  0  0  0  0  0  0  0  0  0
   13.1551  -26.0136  -17.8299 C   0  0  0  0  0  0  0  0  0  0  0  0
    9.1562  -28.1799  -13.8616 C   0  0  0  0  0  0  0  0  0  0  0  0
   11.4631  -29.6941  -13.6382 C   0  0  0  0  0  0  0  0  0  0  0  0
   10.8199  -29.2999  -12.5315 C   0  0  0  0  0  0  0  0  0  0  0  0
    7.1951  -26.8096  -14.6831 C   0  0  0  0  0  0  0  0  0  0  0  0
   10.8706  -29.2594  -14.9537 C   0  0  0  0  0  0  0  0  0  0  0  0
    6.9007  -26.8456  -17.1881 C   0  0  0  0  0  0  0  0  0  0  0  0
   11.0712  -29.1955  -17.4641 C   0  0  1  0  0  0  0  0  0  0  0  0
    8.0831  -26.1857  -17.9214 C   0  0  2  0  0  0  0  0  0  0  0  0
   11.6879  -30.1136  -18.5222 C   0  0  0  0  0  0  0  0  0  0  0  0
    7.6234  -25.7367  -19.3075 C   0  0  0  0  0  0  0  0  0  0  0  0
    8.8979  -28.0265  -11.6213 N   0  0  0  0  0  0  0  0  0  0  0  0
    9.7707  -28.5492  -15.0116 N   0  0  0  0  0  0  0  0  0  0  0  0
    9.6630  -28.5329  -12.6232 N   0  0  0  0  0  0  0  0  0  0  0  0
    7.3445  -27.4066  -15.9264 N   0  0  0  0  0  0  0  0  0  0  0  0
   11.5148  -29.6178  -16.1308 N   0  0  0  0  0  0  0  0  0  0  0  0
    6.4669  -25.8510  -14.4455 O   0  0  0  0  0  0  0  0  0  0  0  0
    9.1336  -27.1629  -18.0634 O   0  0  0  0  0  0  0  0  0  0  0  0
   14.4464  -25.6664  -17.7541 F   0  0  0  0  0  0  0  0  0  0  0  0
   10.1345  -24.6320  -18.4203 H   0  0  0  0  0  0  0  0  0  0  0  0
   12.4823  -24.0215  -18.2669 H   0  0  0  0  0  0  0  0  0  0  0  0
   13.5495  -28.0708  -17.4147 H   0  0  0  0  0  0  0  0  0  0  0  0
    7.1943  -26.8327  -11.6495 H   0  0  0  0  0  0  0  0  0  0  0  0
   12.3672  -30.2876  -13.6208 H   0  0  0  0  0  0  0  0  0  0  0  0
   11.1684  -29.5524  -11.5373 H   0  0  0  0  0  0  0  0  0  0  0  0
    6.0974  -26.1232  -17.0113 H   0  0  0  0  0  0  0  0  0  0  0  0
    6.5056  -27.6856  -17.7697 H   0  0  0  0  0  0  0  0  0  0  0  0
    9.9866  -29.3413  -17.5254 H   0  0  0  0  0  0  0  0  0  0  0  0
    8.4044  -25.3276  -17.3185 H   0  0  0  0  0  0  0  0  0  0  0  0
   12.7707  -30.0117  -18.5087 H   0  0  0  0  0  0  0  0  0  0  0  0
   11.3137  -29.8406  -19.5063 H   0  0  0  0  0  0  0  0  0  0  0  0
   11.4216  -31.1466  -18.3103 H   0  0  0  0  0  0  0  0  0  0  0  0
    7.3091  -26.6013  -19.8895 H   0  0  0  0  0  0  0  0  0  0  0  0
    8.4418  -25.2374  -19.8232 H   0  0  0  0  0  0  0  0  0  0  0  0
    6.7869  -25.0466  -19.2127 H   0  0  0  0  0  0  0  0  0  0  0  0
    7.8028  -28.3121  -15.9556 H   0  0  0  0  0  0  0  0  0  0  0  0
   12.3854  -30.1407  -16.0786 H   0  0  0  0  0  0  0  0  0  0  0  0
  1  2  2  0  0  0  0
  1  7  1  0  0  0  0
  2  8  1  0  0  0  0
  3  6  1  0  0  0  0
  3  8  2  0  0  0  0
  4  5  1  0  0  0  0
  4 19  2  0  0  0  0
  5  9  2  0  0  0  0
  5 12  1  0  0  0  0
  6  7  2  0  0  0  0
  6 15  1  0  0  0  0
  7 25  1  0  0  0  0
  8 26  1  0  0  0  0
  9 20  1  0  0  0  0
  9 21  1  0  0  0  0
 10 11  2  0  0  0  0
 10 13  1  0  0  0  0
 11 21  1  0  0  0  0
 12 22  1  0  0  0  0
 12 24  2  0  0  0  0
 13 20  2  0  0  0  0
 13 23  1  0  0  0  0
 14 16  1  0  0  0  0
 14 22  1  0  0  0  0
 15 17  1  0  0  0  0
 15 23  1  0  0  0  0
 16 18  1  0  0  0  0
 16 25  1  0  0  0  0
 19 21  1  0  0  0  0
  1 27  1  0  0  0  0
  2 28  1  0  0  0  0
  3 29  1  0  0  0  0
  4 30  1  0  0  0  0
 10 31  1  0  0  0  0
 11 32  1  0  0  0  0
 14 33  1  0  0  0  0
 14 34  1  0  0  0  0
 15 35  1  1  0  0  0
 16 36  1  1  0  0  0
 17 37  1  0  0  0  0
 17 38  1  0  0  0  0
 17 39  1  0  0  0  0
 18 40  1  0  0  0  0
 18 41  1  0  0  0  0
 18 42  1  0  0  0  0
 22 43  1  0  0  0  0
 23 44  1  0  0  0  0
M  END
> <Chemgauss4>
-8.717137

$$$$
