UNL
  -OEChem-02102116463D

 53 57  0     1  0  0  0  0  0999 V2000
  -20.2075  -45.7054  -14.7481 C   0  0  0  0  0  0  0  0  0  0  0  0
  -19.0840  -46.2523  -14.1280 C   0  0  0  0  0  0  0  0  0  0  0  0
  -18.7763  -44.4815  -16.2617 C   0  0  0  0  0  0  0  0  0  0  0  0
  -16.9625  -41.1376  -10.8456 C   0  0  0  0  0  0  0  0  0  0  0  0
  -17.6529  -45.0283  -15.6416 C   0  0  0  0  0  0  0  0  0  0  0  0
  -17.1322  -42.3617  -11.5063 C   0  0  0  0  0  0  0  0  0  0  0  0
  -20.0536  -44.8201  -15.8150 C   0  0  0  0  0  0  0  0  0  0  0  0
  -17.8068  -45.9137  -14.5747 C   0  0  0  0  0  0  0  0  0  0  0  0
  -16.6771  -42.1379  -12.7860 C   0  0  0  0  0  0  0  0  0  0  0  0
  -15.6386  -41.0129  -15.0957 C   0  0  0  0  0  0  0  0  0  0  0  0
  -15.7470  -40.2648  -13.9943 C   0  0  0  0  0  0  0  0  0  0  0  0
  -16.1016  -42.4410  -14.9864 C   0  0  0  0  0  0  0  0  0  0  0  0
  -18.1419  -43.8227   -9.7104 C   0  0  0  0  0  0  0  0  0  0  0  0
  -15.0389  -44.0051  -18.0815 C   0  0  0  0  0  0  0  0  0  0  0  0
  -16.0438  -45.0404  -17.5994 C   0  0  0  0  0  0  0  0  0  0  0  0
  -18.7671  -47.4590   -9.9045 C   0  0  0  0  0  0  0  0  0  0  0  0
  -15.4700  -42.7365  -17.3570 C   0  0  0  0  0  0  0  0  0  0  0  0
  -18.5213  -46.1233  -10.5913 C   0  0  0  0  0  0  0  0  0  0  0  0
  -19.1696  -45.7134   -8.3086 C   0  0  0  0  0  0  0  0  0  0  0  0
  -16.2695  -44.6590  -16.1273 C   0  0  1  0  0  0  0  0  0  0  0  0
  -19.6695  -47.0889   -8.7316 C   0  0  1  0  0  0  0  0  0  0  0  0
  -16.4418  -40.1945  -11.6298 N   0  0  0  0  0  0  0  0  0  0  0  0
  -16.5909  -42.9484  -13.8768 N   0  0  0  0  0  0  0  0  0  0  0  0
  -16.2642  -40.8099  -12.8278 N   0  0  0  0  0  0  0  0  0  0  0  0
  -16.0005  -43.2161  -16.0866 N   0  0  3  0  0  0  0  0  0  0  0  0
  -18.5875  -45.1372   -9.5226 N   0  0  0  0  0  0  0  0  0  0  0  0
  -17.6535  -43.5752  -10.9938 N   0  0  0  0  0  0  0  0  0  0  0  0
  -18.2004  -42.9921   -8.8018 O   0  0  0  0  0  0  0  0  0  0  0  0
  -21.0198  -46.9801   -9.1668 O   0  0  0  0  0  0  0  0  0  0  0  0
  -21.1326  -44.2956  -16.4106 F   0  0  0  0  0  0  0  0  0  0  0  0
  -16.7330  -46.4438  -13.9728 F   0  0  0  0  0  0  0  0  0  0  0  0
  -21.2021  -45.9703  -14.4019 H   0  0  0  0  0  0  0  0  0  0  0  0
  -19.2037  -46.9412  -13.2970 H   0  0  0  0  0  0  0  0  0  0  0  0
  -18.6669  -43.7911  -17.0936 H   0  0  0  0  0  0  0  0  0  0  0  0
  -17.1973  -40.8871   -9.8208 H   0  0  0  0  0  0  0  0  0  0  0  0
  -15.2433  -40.6390  -16.0308 H   0  0  0  0  0  0  0  0  0  0  0  0
  -15.4429  -39.2254  -13.9655 H   0  0  0  0  0  0  0  0  0  0  0  0
  -14.0087  -44.2869  -17.8514 H   0  0  0  0  0  0  0  0  0  0  0  0
  -15.1274  -43.8689  -19.1648 H   0  0  0  0  0  0  0  0  0  0  0  0
  -16.9527  -45.0441  -18.2026 H   0  0  0  0  0  0  0  0  0  0  0  0
  -15.5860  -46.0328  -17.6506 H   0  0  0  0  0  0  0  0  0  0  0  0
  -19.2256  -48.1812  -10.5863 H   0  0  0  0  0  0  0  0  0  0  0  0
  -17.8177  -47.8640   -9.5355 H   0  0  0  0  0  0  0  0  0  0  0  0
  -14.6101  -42.0836  -17.1714 H   0  0  0  0  0  0  0  0  0  0  0  0
  -16.2178  -42.1813  -17.9317 H   0  0  0  0  0  0  0  0  0  0  0  0
  -17.5572  -46.0776  -11.1065 H   0  0  0  0  0  0  0  0  0  0  0  0
  -19.3149  -45.8883  -11.3094 H   0  0  0  0  0  0  0  0  0  0  0  0
  -19.9617  -45.0618   -7.9281 H   0  0  0  0  0  0  0  0  0  0  0  0
  -18.3642  -45.7901   -7.5705 H   0  0  0  0  0  0  0  0  0  0  0  0
  -15.5457  -45.2008  -15.5007 H   0  0  0  0  0  0  0  0  0  0  0  0
  -19.6230  -47.8220   -7.9214 H   0  0  0  0  0  0  0  0  0  0  0  0
  -17.6693  -44.3086  -11.6734 H   0  0  0  0  0  0  0  0  0  0  0  0
  -21.0264  -46.3541   -9.8814 H   0  0  0  0  0  0  0  0  0  0  0  0
  1 32  1  0  0  0  0
  1  2  2  0  0  0  0
  1  7  1  0  0  0  0
  2 33  1  0  0  0  0
  2  8  1  0  0  0  0
  3 34  1  0  0  0  0
  3  5  1  0  0  0  0
  3  7  2  0  0  0  0
  4 35  1  0  0  0  0
  4  6  1  0  0  0  0
  4 22  2  0  0  0  0
  5  8  2  0  0  0  0
  5 20  1  0  0  0  0
  6  9  2  0  0  0  0
  6 27  1  0  0  0  0
  7 30  1  0  0  0  0
  8 31  1  0  0  0  0
  9 23  1  0  0  0  0
  9 24  1  0  0  0  0
 10 36  1  0  0  0  0
 10 11  2  0  0  0  0
 10 12  1  0  0  0  0
 11 37  1  0  0  0  0
 11 24  1  0  0  0  0
 12 23  2  0  0  0  0
 12 25  1  1  0  0  0
 13 26  1  0  0  0  0
 13 27  1  0  0  0  0
 13 28  2  0  0  0  0
 14 38  1  0  0  0  0
 14 39  1  0  0  0  0
 14 15  1  0  0  0  0
 14 17  1  0  0  0  0
 15 40  1  0  0  0  0
 15 41  1  0  0  0  0
 15 20  1  0  0  0  0
 16 42  1  0  0  0  0
 16 43  1  0  0  0  0
 16 18  1  0  0  0  0
 16 21  1  0  0  0  0
 17 44  1  0  0  0  0
 17 45  1  0  0  0  0
 17 25  1  0  0  0  0
 18 46  1  0  0  0  0
 18 47  1  0  0  0  0
 18 26  1  0  0  0  0
 19 48  1  0  0  0  0
 19 49  1  0  0  0  0
 19 21  1  0  0  0  0
 19 26  1  0  0  0  0
 20 50  1  6  0  0  0
 20 25  1  0  0  0  0
 21 51  1  1  0  0  0
 21 29  1  0  0  0  0
 22 24  1  0  0  0  0
 27 52  1  0  0  0  0
 29 53  1  0  0  0  0
M  END
> <Chemgauss4>
-17.894371

> <bio:pdb:part:site>
1

> <bio:pdb:part:order>
1

> <bio:pdb:ligand>
true

$$$$
