UNL
  -OEChem-02102117223D

 44 47  0     1  0  0  0  0  0999 V2000
   16.8457  -16.9858   33.9205 C   0  0  0  0  0  0  0  0  0  0  0  0
   17.6930  -16.8747   32.6567 C   0  0  1  0  0  0  0  0  0  0  0  0
   18.7854  -15.8015   32.8562 C   0  0  0  0  0  0  0  0  0  0  0  0
   19.6776  -15.7782   31.7145 N   0  0  0  0  0  0  0  0  0  0  0  0
   19.9563  -14.7178   30.8897 C   0  0  0  0  0  0  0  0  0  0  0  0
   19.5545  -13.5753   31.0914 O   0  0  0  0  0  0  0  0  0  0  0  0
   20.7638  -15.0783   29.7355 C   0  0  0  0  0  0  0  0  0  0  0  0
   21.3169  -14.2638   28.7291 C   0  0  0  0  0  0  0  0  0  0  0  0
   21.9936  -14.9514   27.7981 N   0  0  0  0  0  0  0  0  0  0  0  0
   21.8683  -16.2552   28.1907 N   0  0  0  0  0  0  0  0  0  0  0  0
   22.3479  -17.4059   27.5768 C   0  0  0  0  0  0  0  0  0  0  0  0
   22.1050  -18.6133   28.1120 C   0  0  0  0  0  0  0  0  0  0  0  0
   21.3068  -18.6460   29.3859 C   0  0  0  0  0  0  0  0  0  0  0  0
   20.8757  -17.5538   29.9663 N   0  0  0  0  0  0  0  0  0  0  0  0
   21.1397  -16.3554   29.3699 C   0  0  0  0  0  0  0  0  0  0  0  0
   21.0048  -19.8454   29.9781 N   0  0  0  0  0  0  0  0  0  0  0  0
   20.1725  -19.9851   31.1773 C   0  0  2  0  0  0  0  0  0  0  0  0
   20.4877  -21.3176   31.8616 C   0  0  0  0  0  0  0  0  0  0  0  0
   18.6945  -19.8855   30.8125 C   0  0  0  0  0  0  0  0  0  0  0  0
   18.1766  -20.7440   29.8192 C   0  0  0  0  0  0  0  0  0  0  0  0
   16.8348  -20.6930   29.4667 C   0  0  0  0  0  0  0  0  0  0  0  0
   16.3667  -21.5186   28.5214 F   0  0  0  0  0  0  0  0  0  0  0  0
   15.9739  -19.8051   30.0888 C   0  0  0  0  0  0  0  0  0  0  0  0
   16.4638  -18.9463   31.0747 C   0  0  0  0  0  0  0  0  0  0  0  0
   17.8201  -18.9624   31.4341 C   0  0  0  0  0  0  0  0  0  0  0  0
   18.3422  -18.1497   32.4114 O   0  0  0  0  0  0  0  0  0  0  0  0
   16.0756  -17.7560   33.8161 H   0  0  0  0  0  0  0  0  0  0  0  0
   17.4617  -17.2790   34.7779 H   0  0  0  0  0  0  0  0  0  0  0  0
   16.3550  -16.0354   34.1516 H   0  0  0  0  0  0  0  0  0  0  0  0
   17.0841  -16.5625   31.7995 H   0  0  0  0  0  0  0  0  0  0  0  0
   18.3438  -14.8119   33.0092 H   0  0  0  0  0  0  0  0  0  0  0  0
   19.4111  -16.0508   33.7200 H   0  0  0  0  0  0  0  0  0  0  0  0
   20.0721  -16.6621   31.4632 H   0  0  0  0  0  0  0  0  0  0  0  0
   21.2477  -13.1853   28.6428 H   0  0  0  0  0  0  0  0  0  0  0  0
   22.9083  -17.2640   26.6634 H   0  0  0  0  0  0  0  0  0  0  0  0
   22.4501  -19.5402   27.6756 H   0  0  0  0  0  0  0  0  0  0  0  0
   20.9188  -20.6054   29.3339 H   0  0  0  0  0  0  0  0  0  0  0  0
   20.4477  -19.1983   31.8888 H   0  0  0  0  0  0  0  0  0  0  0  0
   21.5430  -21.3583   32.1541 H   0  0  0  0  0  0  0  0  0  0  0  0
   19.8803  -21.4478   32.7640 H   0  0  0  0  0  0  0  0  0  0  0  0
   20.3002  -22.1744   31.2046 H   0  0  0  0  0  0  0  0  0  0  0  0
   18.8188  -21.4601   29.3119 H   0  0  0  0  0  0  0  0  0  0  0  0
   14.9236  -19.7856   29.8123 H   0  0  0  0  0  0  0  0  0  0  0  0
   15.7509  -18.2827   31.5564 H   0  0  0  0  0  0  0  0  0  0  0  0
  1  2  1  0  0  0  0
  1 27  1  0  0  0  0
  1 28  1  0  0  0  0
  1 29  1  0  0  0  0
  2 26  1  0  0  0  0
  2  3  1  0  0  0  0
  2 30  1  1  0  0  0
  3  4  1  0  0  0  0
  3 31  1  0  0  0  0
  3 32  1  0  0  0  0
  4  5  1  0  0  0  0
  4 33  1  0  0  0  0
  5  6  2  0  0  0  0
  5  7  1  0  0  0  0
  7 15  2  0  0  0  0
  7  8  1  0  0  0  0
  8  9  2  0  0  0  0
  8 34  1  0  0  0  0
  9 10  1  0  0  0  0
 10 15  1  0  0  0  0
 10 11  1  0  0  0  0
 11 12  2  0  0  0  0
 11 35  1  0  0  0  0
 12 13  1  0  0  0  0
 12 36  1  0  0  0  0
 13 14  2  0  0  0  0
 13 16  1  0  0  0  0
 14 15  1  0  0  0  0
 16 17  1  0  0  0  0
 16 37  1  0  0  0  0
 17 18  1  0  0  0  0
 17 19  1  0  0  0  0
 17 38  1  1  0  0  0
 18 39  1  0  0  0  0
 18 40  1  0  0  0  0
 18 41  1  0  0  0  0
 19 25  2  0  0  0  0
 19 20  1  0  0  0  0
 20 21  2  0  0  0  0
 20 42  1  0  0  0  0
 21 22  1  0  0  0  0
 21 23  1  0  0  0  0
 23 24  2  0  0  0  0
 23 43  1  0  0  0  0
 24 25  1  0  0  0  0
 24 44  1  0  0  0  0
 25 26  1  0  0  0  0
M  END
> <Chemgauss4>
-13.059569

> <bio:pdb:part:site>
1

> <bio:pdb:part:order>
1

> <bio:pdb:ligand>
true

$$$$
