_1
  -OEChem-10192011473D

 53 57  0     1  0  0  0  0  0999 V2000
   11.6763  -23.9568  -18.1360 C   0  0  0  0  0  0  0  0  0  0  0  0
   10.4822  -24.2458  -18.7964 C   0  0  0  0  0  0  0  0  0  0  0  0
   12.0321  -26.3146  -17.7473 C   0  0  0  0  0  0  0  0  0  0  0  0
    8.2533  -27.5854  -12.5681 C   0  0  0  0  0  0  0  0  0  0  0  0
   10.8380  -26.6037  -18.4077 C   0  0  0  0  0  0  0  0  0  0  0  0
    8.2974  -27.0754  -13.8725 C   0  0  0  0  0  0  0  0  0  0  0  0
   12.4513  -24.9912  -17.6115 C   0  0  0  0  0  0  0  0  0  0  0  0
   10.0630  -25.5693  -18.9323 C   0  0  0  0  0  0  0  0  0  0  0  0
    9.1542  -27.9130  -14.5500 C   0  0  0  0  0  0  0  0  0  0  0  0
   10.9155  -29.9316  -15.2587 C   0  0  0  0  0  0  0  0  0  0  0  0
   10.4581  -29.8718  -14.0051 C   0  0  0  0  0  0  0  0  0  0  0  0
   10.4227  -28.8699  -16.2053 C   0  0  0  0  0  0  0  0  0  0  0  0
    6.7657  -25.0721  -13.7334 C   0  0  0  0  0  0  0  0  0  0  0  0
   12.1584  -29.4609  -19.3755 C   0  0  0  0  0  0  0  0  0  0  0  0
   10.9177  -28.7049  -19.8330 C   0  0  0  0  0  0  0  0  0  0  0  0
    5.5286  -22.7637  -16.3955 C   0  0  0  0  0  0  0  0  0  0  0  0
   11.7973  -29.9231  -17.9698 C   0  0  0  0  0  0  0  0  0  0  0  0
    6.5166  -23.8431  -15.9705 C   0  0  0  0  0  0  0  0  0  0  0  0
    5.3499  -23.0371  -14.0241 C   0  0  0  0  0  0  0  0  0  0  0  0
   10.3842  -28.0435  -18.5534 C   0  0  1  0  0  0  0  0  0  0  0  0
    5.2870  -21.9757  -15.1129 C   0  0  1  0  0  0  0  0  0  0  0  0
    9.0188  -28.6644  -12.4085 N   0  0  0  0  0  0  0  0  0  0  0  0
    9.5867  -27.9232  -15.8412 N   0  0  0  0  0  0  0  0  0  0  0  0
    9.5753  -28.8688  -13.6307 N   0  0  0  0  0  0  0  0  0  0  0  0
   10.8707  -28.9112  -17.4774 N   0  0  1  0  0  0  0  0  0  0  0  0
    6.2547  -24.0544  -14.5488 N   0  0  0  0  0  0  0  0  0  0  0  0
    7.6200  -25.9496  -14.4022 N   0  0  0  0  0  0  0  0  0  0  0  0
    6.4683  -25.1445  -12.5397 O   0  0  0  0  0  0  0  0  0  0  0  0
    6.3361  -21.0314  -14.9354 O   0  0  0  0  0  0  0  0  0  0  0  0
   13.5982  -24.7135  -16.9779 F   0  0  0  0  0  0  0  0  0  0  0  0
    8.9141  -25.8376  -19.5681 F   0  0  0  0  0  0  0  0  0  0  0  0
   12.0040  -22.9267  -18.0317 H   0  0  0  0  0  0  0  0  0  0  0  0
    9.8785  -23.4405  -19.2043 H   0  0  0  0  0  0  0  0  0  0  0  0
   12.6429  -27.1135  -17.3356 H   0  0  0  0  0  0  0  0  0  0  0  0
    7.6949  -27.2169  -11.7192 H   0  0  0  0  0  0  0  0  0  0  0  0
   11.6045  -30.6910  -15.6037 H   0  0  0  0  0  0  0  0  0  0  0  0
   10.7498  -30.5868  -13.2452 H   0  0  0  0  0  0  0  0  0  0  0  0
   12.4046  -30.2949  -20.0390 H   0  0  0  0  0  0  0  0  0  0  0  0
   13.0204  -28.7843  -19.3404 H   0  0  0  0  0  0  0  0  0  0  0  0
   11.1418  -27.9993  -20.6394 H   0  0  0  0  0  0  0  0  0  0  0  0
   10.1787  -29.4253  -20.2053 H   0  0  0  0  0  0  0  0  0  0  0  0
    5.9333  -22.1494  -17.2066 H   0  0  0  0  0  0  0  0  0  0  0  0
    4.5951  -23.2316  -16.7320 H   0  0  0  0  0  0  0  0  0  0  0  0
   11.2934  -30.8978  -17.9974 H   0  0  0  0  0  0  0  0  0  0  0  0
   12.6875  -30.0077  -17.3356 H   0  0  0  0  0  0  0  0  0  0  0  0
    6.3998  -24.7754  -16.5302 H   0  0  0  0  0  0  0  0  0  0  0  0
    7.5527  -23.5013  -16.0678 H   0  0  0  0  0  0  0  0  0  0  0  0
    5.7249  -22.6567  -13.0687 H   0  0  0  0  0  0  0  0  0  0  0  0
    4.3753  -23.5154  -13.8758 H   0  0  0  0  0  0  0  0  0  0  0  0
    9.2607  -28.0401  -18.5772 H   0  0  0  0  0  0  0  0  0  0  0  0
    4.3343  -21.4392  -15.1309 H   0  0  0  0  0  0  0  0  0  0  0  0
    7.8338  -25.7854  -15.4274 H   0  0  0  0  0  0  0  0  0  0  0  0
    6.1448  -20.5539  -14.1125 H   0  0  0  0  0  0  0  0  0  0  0  0
  1  2  2  0  0  0  0
  1  7  1  0  0  0  0
  2  8  1  0  0  0  0
  3  5  1  0  0  0  0
  3  7  2  0  0  0  0
  4  6  1  0  0  0  0
  4 22  2  0  0  0  0
  5  8  2  0  0  0  0
  5 20  1  0  0  0  0
  6  9  2  0  0  0  0
  6 27  1  0  0  0  0
  7 30  1  0  0  0  0
  8 31  1  0  0  0  0
  9 23  1  0  0  0  0
  9 24  1  0  0  0  0
 10 11  2  0  0  0  0
 10 12  1  0  0  0  0
 11 24  1  0  0  0  0
 12 23  2  0  0  0  0
 12 25  1  6  0  0  0
 13 26  1  0  0  0  0
 13 27  1  0  0  0  0
 13 28  2  0  0  0  0
 14 15  1  0  0  0  0
 14 17  1  0  0  0  0
 15 20  1  0  0  0  0
 16 18  1  0  0  0  0
 16 21  1  0  0  0  0
 17 25  1  0  0  0  0
 18 26  1  0  0  0  0
 19 21  1  0  0  0  0
 19 26  1  0  0  0  0
 20 25  1  0  0  0  0
 21 29  1  0  0  0  0
 22 24  1  0  0  0  0
  1 32  1  0  0  0  0
  2 33  1  0  0  0  0
  3 34  1  0  0  0  0
  4 35  1  0  0  0  0
 10 36  1  0  0  0  0
 11 37  1  0  0  0  0
 14 38  1  0  0  0  0
 14 39  1  0  0  0  0
 15 40  1  0  0  0  0
 15 41  1  0  0  0  0
 16 42  1  0  0  0  0
 16 43  1  0  0  0  0
 17 44  1  0  0  0  0
 17 45  1  0  0  0  0
 18 46  1  0  0  0  0
 18 47  1  0  0  0  0
 19 48  1  0  0  0  0
 19 49  1  0  0  0  0
 20 50  1  6  0  0  0
 21 51  1  1  0  0  0
 27 52  1  0  0  0  0
 29 53  1  0  0  0  0
M  END
> <Chemgauss4>
-10.433056

$$$$
