UNL
  -OEChem-02102117073D

 44 47  0     1  0  0  0  0  0999 V2000
   20.7350  -13.5298   31.1257 C   0  0  0  0  0  0  0  0  0  0  0  0
   19.5909  -14.4482   30.6828 C   0  0  1  0  0  0  0  0  0  0  0  0
   18.2418  -13.7128   30.8253 C   0  0  0  0  0  0  0  0  0  0  0  0
   17.9374  -13.2746   32.1769 N   0  0  0  0  0  0  0  0  0  0  0  0
   17.4161  -13.8827   33.2831 C   0  0  0  0  0  0  0  0  0  0  0  0
   17.3513  -13.1649   34.2900 O   0  0  0  0  0  0  0  0  0  0  0  0
   16.9494  -15.2588   33.3561 C   0  0  0  0  0  0  0  0  0  0  0  0
   16.4588  -15.8110   34.5715 C   0  0  0  0  0  0  0  0  0  0  0  0
   16.0475  -17.0725   34.4750 N   0  0  0  0  0  0  0  0  0  0  0  0
   16.2498  -17.3762   33.1673 N   0  0  0  0  0  0  0  0  0  0  0  0
   15.9442  -18.5722   32.5372 C   0  0  0  0  0  0  0  0  0  0  0  0
   16.1941  -18.7347   31.2344 C   0  0  0  0  0  0  0  0  0  0  0  0
   16.8301  -17.5781   30.5246 C   0  0  0  0  0  0  0  0  0  0  0  0
   17.1182  -16.4478   31.1264 N   0  0  0  0  0  0  0  0  0  0  0  0
   16.8228  -16.3072   32.4556 C   0  0  0  0  0  0  0  0  0  0  0  0
   17.1174  -17.7309   29.1927 N   0  0  0  0  0  0  0  0  0  0  0  0
   17.9029  -16.8032   28.3897 C   0  0  2  0  0  0  0  0  0  0  0  0
   17.5375  -16.9717   26.9126 C   0  0  0  0  0  0  0  0  0  0  0  0
   19.3815  -17.0521   28.6308 C   0  0  0  0  0  0  0  0  0  0  0  0
   19.9295  -18.3306   28.4020 C   0  0  0  0  0  0  0  0  0  0  0  0
   21.2874  -18.5648   28.5903 C   0  0  0  0  0  0  0  0  0  0  0  0
   21.7841  -19.7880   28.3627 F   0  0  0  0  0  0  0  0  0  0  0  0
   22.1359  -17.5456   28.9942 C   0  0  0  0  0  0  0  0  0  0  0  0
   21.6140  -16.2747   29.2281 C   0  0  0  0  0  0  0  0  0  0  0  0
   20.2424  -16.0359   29.0790 C   0  0  0  0  0  0  0  0  0  0  0  0
   19.7668  -14.7656   29.2788 O   0  0  0  0  0  0  0  0  0  0  0  0
   21.6998  -14.0390   31.0645 H   0  0  0  0  0  0  0  0  0  0  0  0
   20.8022  -12.6493   30.4773 H   0  0  0  0  0  0  0  0  0  0  0  0
   20.6100  -13.1967   32.1604 H   0  0  0  0  0  0  0  0  0  0  0  0
   19.5915  -15.3506   31.3076 H   0  0  0  0  0  0  0  0  0  0  0  0
   18.2732  -12.8025   30.2117 H   0  0  0  0  0  0  0  0  0  0  0  0
   17.3923  -14.2816   30.4194 H   0  0  0  0  0  0  0  0  0  0  0  0
   18.1781  -12.3236   32.3707 H   0  0  0  0  0  0  0  0  0  0  0  0
   16.3901  -15.3110   35.5319 H   0  0  0  0  0  0  0  0  0  0  0  0
   15.4973  -19.3399   33.1535 H   0  0  0  0  0  0  0  0  0  0  0  0
   15.9732  -19.6447   30.6944 H   0  0  0  0  0  0  0  0  0  0  0  0
   16.3904  -18.1857   28.6782 H   0  0  0  0  0  0  0  0  0  0  0  0
   17.6304  -15.7780   28.6572 H   0  0  0  0  0  0  0  0  0  0  0  0
   16.4755  -16.7530   26.7534 H   0  0  0  0  0  0  0  0  0  0  0  0
   18.1219  -16.2901   26.2848 H   0  0  0  0  0  0  0  0  0  0  0  0
   17.7148  -17.9922   26.5548 H   0  0  0  0  0  0  0  0  0  0  0  0
   19.3026  -19.1547   28.0701 H   0  0  0  0  0  0  0  0  0  0  0  0
   23.1975  -17.7394   29.1162 H   0  0  0  0  0  0  0  0  0  0  0  0
   22.2904  -15.4729   29.5106 H   0  0  0  0  0  0  0  0  0  0  0  0
  1  2  1  0  0  0  0
  1 27  1  0  0  0  0
  1 28  1  0  0  0  0
  1 29  1  0  0  0  0
  2 26  1  0  0  0  0
  2  3  1  0  0  0  0
  2 30  1  1  0  0  0
  3  4  1  0  0  0  0
  3 31  1  0  0  0  0
  3 32  1  0  0  0  0
  4  5  1  0  0  0  0
  4 33  1  0  0  0  0
  5  6  2  0  0  0  0
  5  7  1  0  0  0  0
  7 15  2  0  0  0  0
  7  8  1  0  0  0  0
  8  9  2  0  0  0  0
  8 34  1  0  0  0  0
  9 10  1  0  0  0  0
 10 15  1  0  0  0  0
 10 11  1  0  0  0  0
 11 12  2  0  0  0  0
 11 35  1  0  0  0  0
 12 13  1  0  0  0  0
 12 36  1  0  0  0  0
 13 14  2  0  0  0  0
 13 16  1  0  0  0  0
 14 15  1  0  0  0  0
 16 17  1  0  0  0  0
 16 37  1  0  0  0  0
 17 18  1  0  0  0  0
 17 19  1  0  0  0  0
 17 38  1  1  0  0  0
 18 39  1  0  0  0  0
 18 40  1  0  0  0  0
 18 41  1  0  0  0  0
 19 25  2  0  0  0  0
 19 20  1  0  0  0  0
 20 21  2  0  0  0  0
 20 42  1  0  0  0  0
 21 22  1  0  0  0  0
 21 23  1  0  0  0  0
 23 24  2  0  0  0  0
 23 43  1  0  0  0  0
 24 25  1  0  0  0  0
 24 44  1  0  0  0  0
 25 26  1  0  0  0  0
M  END
> <Chemgauss4>
-3.171644

> <bio:pdb:part:site>
1

> <bio:pdb:part:order>
1

> <bio:pdb:ligand>
true

$$$$
