_1
  -OEChem-10142010043D

 44 47  0     1  0  0  0  0  0999 V2000
  -19.7898  -45.7888  -13.8702 C   0  0  0  0  0  0  0  0  0  0  0  0
  -20.6315  -45.3764  -14.9044 C   0  0  0  0  0  0  0  0  0  0  0  0
  -18.7315  -44.5252  -16.1072 C   0  0  0  0  0  0  0  0  0  0  0  0
  -16.8470  -40.7347  -10.2293 C   0  0  0  0  0  0  0  0  0  0  0  0
  -16.8286  -42.0414  -10.7528 C   0  0  0  0  0  0  0  0  0  0  0  0
  -17.8597  -44.9333  -15.0767 C   0  0  0  0  0  0  0  0  0  0  0  0
  -18.4058  -45.5683  -13.9349 C   0  0  0  0  0  0  0  0  0  0  0  0
  -20.1041  -44.7437  -16.0215 C   0  0  0  0  0  0  0  0  0  0  0  0
  -16.5540  -41.8477  -12.0919 C   0  0  0  0  0  0  0  0  0  0  0  0
  -16.0171  -40.8338  -14.6115 C   0  0  0  0  0  0  0  0  0  0  0  0
  -16.1295  -39.9977  -13.5713 C   0  0  0  0  0  0  0  0  0  0  0  0
  -17.0935  -43.3211  -10.1080 C   0  0  0  0  0  0  0  0  0  0  0  0
  -16.2096  -42.3001  -14.3222 C   0  0  0  0  0  0  0  0  0  0  0  0
  -16.9737  -45.7910  -10.6062 C   0  0  0  0  0  0  0  0  0  0  0  0
  -16.3687  -44.6472  -15.2233 C   0  0  1  0  0  0  0  0  0  0  0  0
  -18.0371  -46.2292  -11.6302 C   0  0  2  0  0  0  0  0  0  0  0  0
  -15.7604  -45.3902  -16.4153 C   0  0  0  0  0  0  0  0  0  0  0  0
  -18.2936  -47.7272  -11.4740 C   0  0  0  0  0  0  0  0  0  0  0  0
  -16.5772  -39.7969  -11.1416 N   0  0  0  0  0  0  0  0  0  0  0  0
  -16.4542  -42.7358  -13.1107 N   0  0  0  0  0  0  0  0  0  0  0  0
  -16.4056  -40.4875  -12.2990 N   0  0  0  0  0  0  0  0  0  0  0  0
  -16.6087  -44.4047  -10.8259 N   0  0  0  0  0  0  0  0  0  0  0  0
  -16.1314  -43.2069  -15.3713 N   0  0  0  0  0  0  0  0  0  0  0  0
  -17.7053  -43.3967   -9.0470 O   0  0  0  0  0  0  0  0  0  0  0  0
  -17.5284  -45.9704  -12.9542 O   0  0  0  0  0  0  0  0  0  0  0  0
  -20.9110  -44.3467  -17.0140 F   0  0  0  0  0  0  0  0  0  0  0  0
  -20.2533  -46.2934  -13.0286 H   0  0  0  0  0  0  0  0  0  0  0  0
  -21.7009  -45.5546  -14.8361 H   0  0  0  0  0  0  0  0  0  0  0  0
  -18.3427  -44.0244  -16.9910 H   0  0  0  0  0  0  0  0  0  0  0  0
  -17.0425  -40.4229   -9.2129 H   0  0  0  0  0  0  0  0  0  0  0  0
  -15.8072  -40.5035  -15.6199 H   0  0  0  0  0  0  0  0  0  0  0  0
  -16.0171  -38.9252  -13.6748 H   0  0  0  0  0  0  0  0  0  0  0  0
  -17.3390  -45.9212   -9.5825 H   0  0  0  0  0  0  0  0  0  0  0  0
  -16.0525  -46.3697  -10.7343 H   0  0  0  0  0  0  0  0  0  0  0  0
  -15.8260  -44.9935  -14.3361 H   0  0  0  0  0  0  0  0  0  0  0  0
  -18.9472  -45.6527  -11.4241 H   0  0  0  0  0  0  0  0  0  0  0  0
  -16.2621  -45.0856  -17.3309 H   0  0  0  0  0  0  0  0  0  0  0  0
  -15.8821  -46.4624  -16.2787 H   0  0  0  0  0  0  0  0  0  0  0  0
  -14.7010  -45.1555  -16.4908 H   0  0  0  0  0  0  0  0  0  0  0  0
  -17.3800  -48.2812  -11.6824 H   0  0  0  0  0  0  0  0  0  0  0  0
  -19.0690  -48.0427  -12.1698 H   0  0  0  0  0  0  0  0  0  0  0  0
  -18.6172  -47.9416  -10.4570 H   0  0  0  0  0  0  0  0  0  0  0  0
  -15.9426  -44.2109  -11.5673 H   0  0  0  0  0  0  0  0  0  0  0  0
  -15.9740  -42.8600  -16.3141 H   0  0  0  0  0  0  0  0  0  0  0  0
  1  2  2  0  0  0  0
  1  7  1  0  0  0  0
  2  8  1  0  0  0  0
  3  6  1  0  0  0  0
  3  8  2  0  0  0  0
  4  5  1  0  0  0  0
  4 19  2  0  0  0  0
  5  9  2  0  0  0  0
  5 12  1  0  0  0  0
  6  7  2  0  0  0  0
  6 15  1  0  0  0  0
  7 25  1  0  0  0  0
  8 26  1  0  0  0  0
  9 20  1  0  0  0  0
  9 21  1  0  0  0  0
 10 11  2  0  0  0  0
 10 13  1  0  0  0  0
 11 21  1  0  0  0  0
 12 22  1  0  0  0  0
 12 24  2  0  0  0  0
 13 20  2  0  0  0  0
 13 23  1  0  0  0  0
 14 16  1  0  0  0  0
 14 22  1  0  0  0  0
 15 17  1  0  0  0  0
 15 23  1  0  0  0  0
 16 18  1  0  0  0  0
 16 25  1  0  0  0  0
 19 21  1  0  0  0  0
  1 27  1  0  0  0  0
  2 28  1  0  0  0  0
  3 29  1  0  0  0  0
  4 30  1  0  0  0  0
 10 31  1  0  0  0  0
 11 32  1  0  0  0  0
 14 33  1  0  0  0  0
 14 34  1  0  0  0  0
 15 35  1  1  0  0  0
 16 36  1  1  0  0  0
 17 37  1  0  0  0  0
 17 38  1  0  0  0  0
 17 39  1  0  0  0  0
 18 40  1  0  0  0  0
 18 41  1  0  0  0  0
 18 42  1  0  0  0  0
 22 43  1  0  0  0  0
 23 44  1  0  0  0  0
M  END
> <Chemgauss4>
-13.888916

$$$$
