YMX
  -OEChem-02102116533D

 76 81  0     0  0  0  0  0  0999 V2000
   32.2600  -35.0530    0.8420 C   0  0  0  0  0  0  0  0  0  0  0  0
   31.4270  -35.1220    1.9570 C   0  0  0  0  0  0  0  0  0  0  0  0
   31.6370  -35.5870    3.2050 N   0  0  0  0  0  0  0  0  0  0  0  0
   30.5270  -35.4050    3.9660 N   0  0  0  0  0  0  0  0  0  0  0  0
   29.5990  -34.8720    3.1900 C   0  0  0  0  0  0  0  0  0  0  0  0
   28.3680  -34.5560    3.7370 N   0  0  0  0  0  0  0  0  0  0  0  0
   27.1320  -34.6900    3.2000 C   0  0  0  0  0  0  0  0  0  0  0  0
   26.9280  -35.2210    2.0970 O   0  0  0  0  0  0  0  0  0  0  0  0
   26.0020  -34.1190    4.0080 C   0  0  0  0  0  0  0  0  0  0  0  0
   26.0850  -34.0980    5.4070 C   0  0  0  0  0  0  0  0  0  0  0  0
   25.0550  -33.5670    6.1750 C   0  0  0  0  0  0  0  0  0  0  0  0
   23.9290  -33.0550    5.5550 C   0  0  0  0  0  0  0  0  0  0  0  0
   22.8650  -32.5190    6.3400 N   0  0  0  0  0  0  0  0  0  0  0  0
   22.5020  -33.0260    7.6640 C   0  0  0  0  0  0  0  0  0  0  0  0
   22.3920  -31.8800    8.6570 C   0  0  0  0  0  0  0  0  0  0  0  0
   21.4340  -30.8800    8.1890 N   0  3  0  0  0  0  0  0  0  0  0  0
   21.2760  -29.8060    9.1750 C   0  0  0  0  0  0  0  0  0  0  0  0
   21.8890  -30.3410    6.9110 C   0  0  0  0  0  0  0  0  0  0  0  0
   21.9980  -31.4410    5.8680 C   0  0  0  0  0  0  0  0  0  0  0  0
   23.8320  -33.0810    4.1590 C   0  0  0  0  0  0  0  0  0  0  0  0
   24.8580  -33.5910    3.3750 C   0  0  0  0  0  0  0  0  0  0  0  0
   24.7530  -33.6170    2.0120 N   0  0  0  0  0  0  0  0  0  0  0  0
   24.0640  -32.6590    1.1650 C   0  0  0  0  0  0  0  0  0  0  0  0
   24.2630  -33.0560   -0.2950 C   0  0  0  0  0  0  0  0  0  0  0  0
   23.7480  -31.9780   -1.2150 C   0  0  0  0  0  0  0  0  0  0  0  0
   24.3030  -30.6990   -0.9150 O   0  0  0  0  0  0  0  0  0  0  0  0
   23.9760  -30.2990    0.4130 C   0  0  0  0  0  0  0  0  0  0  0  0
   24.5760  -31.2450    1.4130 C   0  0  0  0  0  0  0  0  0  0  0  0
   30.1080  -34.6430    1.9240 C   0  0  0  0  0  0  0  0  0  0  0  0
   29.6130  -34.0870    0.7390 C   0  0  0  0  0  0  0  0  0  0  0  0
   30.4250  -34.0420   -0.3890 C   0  0  0  0  0  0  0  0  0  0  0  0
   29.9340  -33.3680   -1.6530 C   0  0  0  0  0  0  0  0  0  0  0  0
   29.7210  -31.8950   -1.3640 C   0  0  0  0  0  0  0  0  0  0  0  0
   30.7990  -31.0810   -1.0890 C   0  0  0  0  0  0  0  0  0  0  0  0
   30.5870  -29.7660   -0.7450 C   0  0  0  0  0  0  0  0  0  0  0  0
   31.6640  -28.9700   -0.4930 F   0  0  0  0  0  0  0  0  0  0  0  0
   29.3320  -29.2210   -0.6340 C   0  0  0  0  0  0  0  0  0  0  0  0
   28.2810  -30.0590   -0.8910 C   0  0  0  0  0  0  0  0  0  0  0  0
   27.0200  -29.5690   -0.7910 F   0  0  0  0  0  0  0  0  0  0  0  0
   28.4490  -31.3840   -1.2280 C   0  0  0  0  0  0  0  0  0  0  0  0
   31.7520  -34.4980   -0.3060 C   0  0  0  0  0  0  0  0  0  0  0  0
   33.2734  -35.4245    0.8799 H   0  0  0  0  0  0  0  0  0  0  0  0
   32.4868  -36.0049    3.5241 H   0  0  0  0  0  0  0  0  0  0  0  0
   28.3948  -34.1741    4.6608 H   0  0  0  0  0  0  0  0  0  0  0  0
   26.9608  -34.4997    5.8949 H   0  0  0  0  0  0  0  0  0  0  0  0
   25.1335  -33.5542    7.2521 H   0  0  0  0  0  0  0  0  0  0  0  0
   20.5478  -31.3231    8.0538 H   0  0  0  0  0  0  0  0  0  0  0  0
   22.9421  -32.6970    3.6826 H   0  0  0  0  0  0  0  0  0  0  0  0
   25.2004  -34.3806    1.5464 H   0  0  0  0  0  0  0  0  0  0  0  0
   30.6829  -33.4848   -2.4502 H   0  0  0  0  0  0  0  0  0  0  0  0
   22.9871  -32.6831    1.3879 H   0  0  0  0  0  0  0  0  0  0  0  0
   28.9851  -33.8242   -1.9717 H   0  0  0  0  0  0  0  0  0  0  0  0
   28.6072  -33.6955    0.7008 H   0  0  0  0  0  0  0  0  0  0  0  0
   31.8038  -31.4732   -1.1433 H   0  0  0  0  0  0  0  0  0  0  0  0
   29.1822  -28.1874   -0.3589 H   0  0  0  0  0  0  0  0  0  0  0  0
   27.5889  -32.0182   -1.3846 H   0  0  0  0  0  0  0  0  0  0  0  0
   32.3913  -34.4090   -1.1719 H   0  0  0  0  0  0  0  0  0  0  0  0
   21.5343  -33.5453    7.6008 H   0  0  0  0  0  0  0  0  0  0  0  0
   25.3355  -33.2104   -0.4843 H   0  0  0  0  0  0  0  0  0  0  0  0
   23.2743  -33.7302    8.0070 H   0  0  0  0  0  0  0  0  0  0  0  0
   23.7175  -33.9905   -0.4927 H   0  0  0  0  0  0  0  0  0  0  0  0
   22.0569  -32.2744    9.6277 H   0  0  0  0  0  0  0  0  0  0  0  0
   24.0086  -32.2425   -2.2504 H   0  0  0  0  0  0  0  0  0  0  0  0
   23.3786  -31.4078    8.7739 H   0  0  0  0  0  0  0  0  0  0  0  0
   22.6540  -31.9210   -1.1154 H   0  0  0  0  0  0  0  0  0  0  0  0
   20.5517  -29.0675    8.8007 H   0  0  0  0  0  0  0  0  0  0  0  0
   20.9115  -30.2291   10.1227 H   0  0  0  0  0  0  0  0  0  0  0  0
   24.3678  -29.2869    0.5925 H   0  0  0  0  0  0  0  0  0  0  0  0
   22.2465  -29.3157    9.3416 H   0  0  0  0  0  0  0  0  0  0  0  0
   22.8823  -30.2949    0.5303 H   0  0  0  0  0  0  0  0  0  0  0  0
   21.1707  -29.5841    6.5628 H   0  0  0  0  0  0  0  0  0  0  0  0
   24.2947  -30.9285    2.4282 H   0  0  0  0  0  0  0  0  0  0  0  0
   22.8759  -29.8746    7.0474 H   0  0  0  0  0  0  0  0  0  0  0  0
   25.6716  -31.2318    1.3152 H   0  0  0  0  0  0  0  0  0  0  0  0
   22.4172  -31.0201    4.9422 H   0  0  0  0  0  0  0  0  0  0  0  0
   20.9958  -31.8466    5.6654 H   0  0  0  0  0  0  0  0  0  0  0  0
  1  2  2  0  0  0  0
  1 41  1  0  0  0  0
  1 42  1  0  0  0  0
  2  3  1  0  0  0  0
  2 29  1  0  0  0  0
  3  4  1  0  0  0  0
  3 43  1  0  0  0  0
  4  5  2  0  0  0  0
  5  6  1  0  0  0  0
  5 29  1  0  0  0  0
  6  7  1  0  0  0  0
  6 44  1  0  0  0  0
  7  8  2  0  0  0  0
  7  9  1  0  0  0  0
  9 10  2  0  0  0  0
  9 21  1  0  0  0  0
 10 11  1  0  0  0  0
 10 45  1  0  0  0  0
 11 12  2  0  0  0  0
 11 46  1  0  0  0  0
 12 13  1  0  0  0  0
 12 20  1  0  0  0  0
 13 14  1  0  0  0  0
 13 19  1  0  0  0  0
 14 15  1  0  0  0  0
 14 58  1  0  0  0  0
 14 60  1  0  0  0  0
 15 16  1  0  0  0  0
 15 62  1  0  0  0  0
 15 64  1  0  0  0  0
 16 17  1  0  0  0  0
 16 18  1  0  0  0  0
 16 47  1  0  0  0  0
 17 66  1  0  0  0  0
 17 67  1  0  0  0  0
 17 69  1  0  0  0  0
 18 19  1  0  0  0  0
 18 71  1  0  0  0  0
 18 73  1  0  0  0  0
 19 75  1  0  0  0  0
 19 76  1  0  0  0  0
 20 21  2  0  0  0  0
 20 48  1  0  0  0  0
 21 22  1  0  0  0  0
 22 23  1  0  0  0  0
 22 49  1  0  0  0  0
 23 24  1  0  0  0  0
 23 28  1  0  0  0  0
 23 51  1  0  0  0  0
 24 25  1  0  0  0  0
 24 59  1  0  0  0  0
 24 61  1  0  0  0  0
 25 26  1  0  0  0  0
 25 63  1  0  0  0  0
 25 65  1  0  0  0  0
 26 27  1  0  0  0  0
 27 28  1  0  0  0  0
 27 68  1  0  0  0  0
 27 70  1  0  0  0  0
 28 72  1  0  0  0  0
 28 74  1  0  0  0  0
 29 30  2  0  0  0  0
 30 31  1  0  0  0  0
 30 53  1  0  0  0  0
 31 32  1  0  0  0  0
 31 41  2  0  0  0  0
 32 33  1  0  0  0  0
 32 50  1  0  0  0  0
 32 52  1  0  0  0  0
 33 34  2  0  0  0  0
 33 40  1  0  0  0  0
 34 35  1  0  0  0  0
 34 54  1  0  0  0  0
 35 36  1  0  0  0  0
 35 37  2  0  0  0  0
 37 38  1  0  0  0  0
 37 55  1  0  0  0  0
 38 39  1  0  0  0  0
 38 40  2  0  0  0  0
 40 56  1  0  0  0  0
 41 57  1  0  0  0  0
M  CHG  1  16   1
M  END
> <bio:pdb:part:site>
1

> <bio:pdb:part:order>
1

> <bio:pdb:ligand>
true

$$$$
