UNL
  -OEChem-02102116493D

 49 53  0     1  0  0  0  0  0999 V2000
  -15.9506  -46.3155  -10.3419 C   0  0  0  0  0  0  0  0  0  0  0  0
  -17.3566  -45.7981  -10.6489 C   0  0  2  0  0  0  0  0  0  0  0  0
  -18.1079  -46.7023  -11.6457 C   0  0  0  0  0  0  0  0  0  0  0  0
  -17.5700  -46.7378  -13.0950 C   0  0  0  0  0  0  0  0  0  0  0  0
  -18.3334  -45.8528  -14.0641 C   0  0  0  0  0  0  0  0  0  0  0  0
  -19.6906  -46.0286  -14.0079 N   0  0  0  0  0  0  0  0  0  0  0  0
  -20.4745  -45.3191  -14.8554 C   0  0  0  0  0  0  0  0  0  0  0  0
  -19.9721  -44.4419  -15.7853 C   0  0  0  0  0  0  0  0  0  0  0  0
  -20.7857  -43.7616  -16.6025 F   0  0  0  0  0  0  0  0  0  0  0  0
  -18.6003  -44.2796  -15.8650 C   0  0  0  0  0  0  0  0  0  0  0  0
  -17.7341  -44.9901  -15.0048 C   0  0  0  0  0  0  0  0  0  0  0  0
  -16.2270  -44.7997  -15.1362 C   0  0  1  0  0  0  0  0  0  0  0  0
  -15.6136  -45.5529  -16.3245 C   0  0  0  0  0  0  0  0  0  0  0  0
  -15.5295  -44.5139  -17.4313 C   0  0  0  0  0  0  0  0  0  0  0  0
  -15.2365  -43.2154  -16.6879 C   0  0  0  0  0  0  0  0  0  0  0  0
  -15.8717  -43.3803  -15.3825 N   0  0  3  0  0  0  0  0  0  0  0  0
  -15.9837  -42.4099  -14.4050 C   0  0  0  0  0  0  0  0  0  0  0  0
  -15.6449  -40.9638  -14.6610 C   0  0  0  0  0  0  0  0  0  0  0  0
  -15.8192  -40.1043  -13.6448 C   0  0  0  0  0  0  0  0  0  0  0  0
  -16.2783  -40.5531  -12.4140 N   0  0  0  0  0  0  0  0  0  0  0  0
  -16.5090  -39.8404  -11.2712 N   0  0  0  0  0  0  0  0  0  0  0  0
  -16.9023  -40.7654  -10.3854 C   0  0  0  0  0  0  0  0  0  0  0  0
  -16.9507  -42.0685  -10.9189 C   0  0  0  0  0  0  0  0  0  0  0  0
  -16.5559  -41.9028  -12.2306 C   0  0  0  0  0  0  0  0  0  0  0  0
  -16.4122  -42.8175  -13.2303 N   0  0  0  0  0  0  0  0  0  0  0  0
  -17.2959  -43.3179  -10.2623 C   0  0  0  0  0  0  0  0  0  0  0  0
  -17.5450  -43.3821   -9.0608 O   0  0  0  0  0  0  0  0  0  0  0  0
  -17.2878  -44.4187  -11.0937 N   0  0  0  0  0  0  0  0  0  0  0  0
  -15.4882  -45.7232   -9.5442 H   0  0  0  0  0  0  0  0  0  0  0  0
  -15.9794  -47.3584  -10.0103 H   0  0  0  0  0  0  0  0  0  0  0  0
  -15.2918  -46.2482  -11.2136 H   0  0  0  0  0  0  0  0  0  0  0  0
  -17.9177  -45.8134   -9.7059 H   0  0  0  0  0  0  0  0  0  0  0  0
  -19.1685  -46.4244  -11.6276 H   0  0  0  0  0  0  0  0  0  0  0  0
  -18.0650  -47.7268  -11.2515 H   0  0  0  0  0  0  0  0  0  0  0  0
  -16.4858  -46.5522  -13.1037 H   0  0  0  0  0  0  0  0  0  0  0  0
  -17.6923  -47.7613  -13.4750 H   0  0  0  0  0  0  0  0  0  0  0  0
  -21.5442  -45.4792  -14.7674 H   0  0  0  0  0  0  0  0  0  0  0  0
  -18.2141  -43.5834  -16.6040 H   0  0  0  0  0  0  0  0  0  0  0  0
  -15.7116  -45.1174  -14.2266 H   0  0  0  0  0  0  0  0  0  0  0  0
  -16.1763  -46.4427  -16.6237 H   0  0  0  0  0  0  0  0  0  0  0  0
  -14.5966  -45.8736  -16.0644 H   0  0  0  0  0  0  0  0  0  0  0  0
  -14.7585  -44.7493  -18.1708 H   0  0  0  0  0  0  0  0  0  0  0  0
  -16.4858  -44.4444  -17.9612 H   0  0  0  0  0  0  0  0  0  0  0  0
  -14.1571  -43.0810  -16.5573 H   0  0  0  0  0  0  0  0  0  0  0  0
  -15.6397  -42.3597  -17.2381 H   0  0  0  0  0  0  0  0  0  0  0  0
  -15.2876  -40.6543  -15.6323 H   0  0  0  0  0  0  0  0  0  0  0  0
  -15.6135  -39.0458  -13.7224 H   0  0  0  0  0  0  0  0  0  0  0  0
  -17.1383  -40.4599   -9.3722 H   0  0  0  0  0  0  0  0  0  0  0  0
  -17.0464  -44.2462  -12.0487 H   0  0  0  0  0  0  0  0  0  0  0  0
  1  2  1  0  0  0  0
  1 29  1  0  0  0  0
  1 30  1  0  0  0  0
  1 31  1  0  0  0  0
  2 28  1  0  0  0  0
  2  3  1  0  0  0  0
  2 32  1  6  0  0  0
  3  4  1  0  0  0  0
  3 33  1  0  0  0  0
  3 34  1  0  0  0  0
  4  5  1  0  0  0  0
  4 35  1  0  0  0  0
  4 36  1  0  0  0  0
  5 11  2  0  0  0  0
  5  6  1  0  0  0  0
  6  7  2  0  0  0  0
  7  8  1  0  0  0  0
  7 37  1  0  0  0  0
  8  9  1  0  0  0  0
  8 10  2  0  0  0  0
 10 11  1  0  0  0  0
 10 38  1  0  0  0  0
 11 12  1  0  0  0  0
 12 16  1  0  0  0  0
 12 13  1  0  0  0  0
 12 39  1  1  0  0  0
 13 14  1  0  0  0  0
 13 40  1  0  0  0  0
 13 41  1  0  0  0  0
 14 15  1  0  0  0  0
 14 42  1  0  0  0  0
 14 43  1  0  0  0  0
 15 16  1  0  0  0  0
 15 44  1  0  0  0  0
 15 45  1  0  0  0  0
 16 17  1  0  0  0  0
 17 25  2  0  0  0  0
 17 18  1  0  0  0  0
 18 19  2  0  0  0  0
 18 46  1  0  0  0  0
 19 20  1  0  0  0  0
 19 47  1  0  0  0  0
 20 24  1  0  0  0  0
 20 21  1  0  0  0  0
 21 22  2  0  0  0  0
 22 23  1  0  0  0  0
 22 48  1  0  0  0  0
 23 24  2  0  0  0  0
 23 26  1  0  0  0  0
 24 25  1  0  0  0  0
 26 27  2  0  0  0  0
 26 28  1  0  0  0  0
 28 49  1  0  0  0  0
M  END
> <Chemgauss4>
-17.347548

> <bio:pdb:part:site>
1

> <bio:pdb:part:order>
1

> <bio:pdb:ligand>
true

$$$$
