UNL
  -OEChem-02102117033D

 53 57  0     1  0  0  0  0  0999 V2000
   20.2170  -20.6791   29.4122 C   0  0  0  0  0  0  0  0  0  0  0  0
   19.1107  -20.5545   28.5719 C   0  0  0  0  0  0  0  0  0  0  0  0
   18.8902  -19.8996   31.2747 C   0  0  0  0  0  0  0  0  0  0  0  0
   19.4827  -13.6173   30.8745 C   0  0  0  0  0  0  0  0  0  0  0  0
   17.7839  -19.7749   30.4343 C   0  0  0  0  0  0  0  0  0  0  0  0
   19.4858  -14.9534   30.4520 C   0  0  0  0  0  0  0  0  0  0  0  0
   20.1068  -20.3517   30.7636 C   0  0  0  0  0  0  0  0  0  0  0  0
   17.8941  -20.1024   29.0829 C   0  0  0  0  0  0  0  0  0  0  0  0
   18.5116  -15.5648   31.2081 C   0  0  0  0  0  0  0  0  0  0  0  0
   16.4814  -16.1193   33.0109 C   0  0  0  0  0  0  0  0  0  0  0  0
   16.9652  -14.8767   32.9312 C   0  0  0  0  0  0  0  0  0  0  0  0
   17.0956  -17.1400   32.0906 C   0  0  0  0  0  0  0  0  0  0  0  0
   20.8697  -14.9721   28.3392 C   0  0  0  0  0  0  0  0  0  0  0  0
   15.8498  -20.4592   33.0108 C   0  0  0  0  0  0  0  0  0  0  0  0
   15.5771  -20.4248   31.5127 C   0  0  0  0  0  0  0  0  0  0  0  0
   22.8993  -16.6101   25.7221 C   0  0  0  0  0  0  0  0  0  0  0  0
   16.0755  -18.9953   33.3670 C   0  0  0  0  0  0  0  0  0  0  0  0
   21.7623  -15.6810   26.1225 C   0  0  0  0  0  0  0  0  0  0  0  0
   22.3548  -17.0427   28.0182 C   0  0  0  0  0  0  0  0  0  0  0  0
   16.4625  -19.2825   30.9925 C   0  0  1  0  0  0  0  0  0  0  0  0
   22.8023  -17.7415   26.7406 C   0  0  1  0  0  0  0  0  0  0  0  0
   18.5826  -13.3784   31.8276 N   0  0  0  0  0  0  0  0  0  0  0  0
   18.0587  -16.8485   31.2449 N   0  0  0  0  0  0  0  0  0  0  0  0
   17.9816  -14.5790   32.0346 N   0  0  0  0  0  0  0  0  0  0  0  0
   16.6218  -18.4017   32.1529 N   0  0  3  0  0  0  0  0  0  0  0  0
   21.6261  -15.8576   27.5610 N   0  0  0  0  0  0  0  0  0  0  0  0
   20.3002  -15.5645   29.4669 N   0  0  0  0  0  0  0  0  0  0  0  0
   20.7501  -13.7866   28.0245 O   0  0  0  0  0  0  0  0  0  0  0  0
   21.8026  -18.6734   26.3449 O   0  0  0  0  0  0  0  0  0  0  0  0
   21.1691  -20.4720   31.5705 F   0  0  0  0  0  0  0  0  0  0  0  0
   16.8365  -19.9856   28.2681 F   0  0  0  0  0  0  0  0  0  0  0  0
   21.1639  -21.0329   29.0151 H   0  0  0  0  0  0  0  0  0  0  0  0
   19.1966  -20.8089   27.5195 H   0  0  0  0  0  0  0  0  0  0  0  0
   18.8143  -19.6473   32.3288 H   0  0  0  0  0  0  0  0  0  0  0  0
   20.1006  -12.8003   30.5297 H   0  0  0  0  0  0  0  0  0  0  0  0
   15.6907  -16.4060   33.6913 H   0  0  0  0  0  0  0  0  0  0  0  0
   16.5936  -14.0676   33.5484 H   0  0  0  0  0  0  0  0  0  0  0  0
   15.0229  -20.9025   33.5729 H   0  0  0  0  0  0  0  0  0  0  0  0
   16.7562  -21.0412   33.2155 H   0  0  0  0  0  0  0  0  0  0  0  0
   15.7724  -21.3918   31.0382 H   0  0  0  0  0  0  0  0  0  0  0  0
   14.5222  -20.1709   31.3488 H   0  0  0  0  0  0  0  0  0  0  0  0
   22.7907  -16.9533   24.6891 H   0  0  0  0  0  0  0  0  0  0  0  0
   23.8572  -16.0881   25.8297 H   0  0  0  0  0  0  0  0  0  0  0  0
   15.1260  -18.5056   33.6184 H   0  0  0  0  0  0  0  0  0  0  0  0
   16.7580  -18.8910   34.2188 H   0  0  0  0  0  0  0  0  0  0  0  0
   21.9573  -14.6336   25.8737 H   0  0  0  0  0  0  0  0  0  0  0  0
   20.8156  -15.9816   25.6600 H   0  0  0  0  0  0  0  0  0  0  0  0
   21.7069  -17.6606   28.6469 H   0  0  0  0  0  0  0  0  0  0  0  0
   23.2115  -16.6888   28.6015 H   0  0  0  0  0  0  0  0  0  0  0  0
   15.9385  -18.7574   30.1803 H   0  0  0  0  0  0  0  0  0  0  0  0
   23.7484  -18.2765   26.8617 H   0  0  0  0  0  0  0  0  0  0  0  0
   20.4746  -16.5315   29.6527 H   0  0  0  0  0  0  0  0  0  0  0  0
   21.1335  -18.1778   25.8876 H   0  0  0  0  0  0  0  0  0  0  0  0
  1 32  1  0  0  0  0
  1  2  2  0  0  0  0
  1  7  1  0  0  0  0
  2 33  1  0  0  0  0
  2  8  1  0  0  0  0
  3 34  1  0  0  0  0
  3  5  1  0  0  0  0
  3  7  2  0  0  0  0
  4 35  1  0  0  0  0
  4  6  1  0  0  0  0
  4 22  2  0  0  0  0
  5  8  2  0  0  0  0
  5 20  1  0  0  0  0
  6  9  2  0  0  0  0
  6 27  1  0  0  0  0
  7 30  1  0  0  0  0
  8 31  1  0  0  0  0
  9 23  1  0  0  0  0
  9 24  1  0  0  0  0
 10 36  1  0  0  0  0
 10 11  2  0  0  0  0
 10 12  1  0  0  0  0
 11 37  1  0  0  0  0
 11 24  1  0  0  0  0
 12 23  2  0  0  0  0
 12 25  1  1  0  0  0
 13 26  1  0  0  0  0
 13 27  1  0  0  0  0
 13 28  2  0  0  0  0
 14 38  1  0  0  0  0
 14 39  1  0  0  0  0
 14 15  1  0  0  0  0
 14 17  1  0  0  0  0
 15 40  1  0  0  0  0
 15 41  1  0  0  0  0
 15 20  1  0  0  0  0
 16 42  1  0  0  0  0
 16 43  1  0  0  0  0
 16 18  1  0  0  0  0
 16 21  1  0  0  0  0
 17 44  1  0  0  0  0
 17 45  1  0  0  0  0
 17 25  1  0  0  0  0
 18 46  1  0  0  0  0
 18 47  1  0  0  0  0
 18 26  1  0  0  0  0
 19 48  1  0  0  0  0
 19 49  1  0  0  0  0
 19 21  1  0  0  0  0
 19 26  1  0  0  0  0
 20 50  1  6  0  0  0
 20 25  1  0  0  0  0
 21 51  1  1  0  0  0
 21 29  1  0  0  0  0
 22 24  1  0  0  0  0
 27 52  1  0  0  0  0
 29 53  1  0  0  0  0
M  END
> <Chemgauss4>
-0.452162

> <bio:pdb:part:site>
1

> <bio:pdb:part:order>
1

> <bio:pdb:ligand>
true

$$$$
