UNL
  -OEChem-02102116523D

 44 47  0     1  0  0  0  0  0999 V2000
  -16.1848  -47.0928  -11.3650 C   0  0  0  0  0  0  0  0  0  0  0  0
  -17.5063  -46.5959  -11.9544 C   0  0  1  0  0  0  0  0  0  0  0  0
  -18.0585  -45.4329  -11.1002 C   0  0  0  0  0  0  0  0  0  0  0  0
  -17.4054  -44.1766  -11.4094 N   0  0  0  0  0  0  0  0  0  0  0  0
  -17.4338  -43.0391  -10.6432 C   0  0  0  0  0  0  0  0  0  0  0  0
  -17.8463  -43.0135   -9.4866 O   0  0  0  0  0  0  0  0  0  0  0  0
  -16.9674  -41.8520  -11.3401 C   0  0  0  0  0  0  0  0  0  0  0  0
  -16.8253  -40.5348  -10.8626 C   0  0  0  0  0  0  0  0  0  0  0  0
  -16.4144  -39.6696  -11.7993 N   0  0  0  0  0  0  0  0  0  0  0  0
  -16.3083  -40.4303  -12.9299 N   0  0  0  0  0  0  0  0  0  0  0  0
  -15.9837  -40.0329  -14.2203 C   0  0  0  0  0  0  0  0  0  0  0  0
  -15.9496  -40.9298  -15.2180 C   0  0  0  0  0  0  0  0  0  0  0  0
  -16.2492  -42.3599  -14.8612 C   0  0  0  0  0  0  0  0  0  0  0  0
  -16.5405  -42.7281  -13.6374 N   0  0  0  0  0  0  0  0  0  0  0  0
  -16.5986  -41.7659  -12.6689 C   0  0  0  0  0  0  0  0  0  0  0  0
  -16.2168  -43.3216  -15.8393 N   0  0  0  0  0  0  0  0  0  0  0  0
  -16.3576  -44.7588  -15.5954 C   0  0  2  0  0  0  0  0  0  0  0  0
  -15.7987  -45.5358  -16.7903 C   0  0  0  0  0  0  0  0  0  0  0  0
  -17.8139  -45.1355  -15.3335 C   0  0  0  0  0  0  0  0  0  0  0  0
  -18.8054  -44.7609  -16.2612 C   0  0  0  0  0  0  0  0  0  0  0  0
  -20.1325  -45.1128  -16.0528 C   0  0  0  0  0  0  0  0  0  0  0  0
  -21.0614  -44.7483  -16.9465 F   0  0  0  0  0  0  0  0  0  0  0  0
  -20.5065  -45.8439  -14.9358 C   0  0  0  0  0  0  0  0  0  0  0  0
  -19.5405  -46.2249  -14.0022 C   0  0  0  0  0  0  0  0  0  0  0  0
  -18.1999  -45.8665  -14.1832 C   0  0  0  0  0  0  0  0  0  0  0  0
  -17.2004  -46.1959  -13.3096 O   0  0  0  0  0  0  0  0  0  0  0  0
  -15.7893  -47.9203  -11.9643 H   0  0  0  0  0  0  0  0  0  0  0  0
  -15.4235  -46.3048  -11.3786 H   0  0  0  0  0  0  0  0  0  0  0  0
  -16.3132  -47.4408  -10.3355 H   0  0  0  0  0  0  0  0  0  0  0  0
  -18.1977  -47.4462  -11.9481 H   0  0  0  0  0  0  0  0  0  0  0  0
  -19.1196  -45.2755  -11.3204 H   0  0  0  0  0  0  0  0  0  0  0  0
  -17.9818  -45.6383  -10.0271 H   0  0  0  0  0  0  0  0  0  0  0  0
  -17.0723  -44.0785  -12.3472 H   0  0  0  0  0  0  0  0  0  0  0  0
  -17.0167  -40.1745   -9.8581 H   0  0  0  0  0  0  0  0  0  0  0  0
  -15.7777  -38.9811  -14.3611 H   0  0  0  0  0  0  0  0  0  0  0  0
  -15.7092  -40.6749  -16.2407 H   0  0  0  0  0  0  0  0  0  0  0  0
  -16.6007  -43.0214  -16.7125 H   0  0  0  0  0  0  0  0  0  0  0  0
  -15.7300  -45.0160  -14.7345 H   0  0  0  0  0  0  0  0  0  0  0  0
  -14.7411  -45.2941  -16.9452 H   0  0  0  0  0  0  0  0  0  0  0  0
  -15.8791  -46.6163  -16.6279 H   0  0  0  0  0  0  0  0  0  0  0  0
  -16.3262  -45.2959  -17.7205 H   0  0  0  0  0  0  0  0  0  0  0  0
  -18.5487  -44.1925  -17.1518 H   0  0  0  0  0  0  0  0  0  0  0  0
  -21.5480  -46.1187  -14.7942 H   0  0  0  0  0  0  0  0  0  0  0  0
  -19.8699  -46.8082  -13.1474 H   0  0  0  0  0  0  0  0  0  0  0  0
  1  2  1  0  0  0  0
  1 27  1  0  0  0  0
  1 28  1  0  0  0  0
  1 29  1  0  0  0  0
  2 26  1  0  0  0  0
  2  3  1  0  0  0  0
  2 30  1  1  0  0  0
  3  4  1  0  0  0  0
  3 31  1  0  0  0  0
  3 32  1  0  0  0  0
  4  5  1  0  0  0  0
  4 33  1  0  0  0  0
  5  6  2  0  0  0  0
  5  7  1  0  0  0  0
  7 15  2  0  0  0  0
  7  8  1  0  0  0  0
  8  9  2  0  0  0  0
  8 34  1  0  0  0  0
  9 10  1  0  0  0  0
 10 15  1  0  0  0  0
 10 11  1  0  0  0  0
 11 12  2  0  0  0  0
 11 35  1  0  0  0  0
 12 13  1  0  0  0  0
 12 36  1  0  0  0  0
 13 14  2  0  0  0  0
 13 16  1  0  0  0  0
 14 15  1  0  0  0  0
 16 17  1  0  0  0  0
 16 37  1  0  0  0  0
 17 18  1  0  0  0  0
 17 19  1  0  0  0  0
 17 38  1  1  0  0  0
 18 39  1  0  0  0  0
 18 40  1  0  0  0  0
 18 41  1  0  0  0  0
 19 25  2  0  0  0  0
 19 20  1  0  0  0  0
 20 21  2  0  0  0  0
 20 42  1  0  0  0  0
 21 22  1  0  0  0  0
 21 23  1  0  0  0  0
 23 24  2  0  0  0  0
 23 43  1  0  0  0  0
 24 25  1  0  0  0  0
 24 44  1  0  0  0  0
 25 26  1  0  0  0  0
M  END
> <Chemgauss4>
-13.539141

> <bio:pdb:part:site>
1

> <bio:pdb:part:order>
1

> <bio:pdb:ligand>
true

$$$$
