_1
  -OEChem-10142012463D

 44 47  0     1  0  0  0  0  0999 V2000
  -25.3068   -4.2210   -9.5823 C   0  0  0  0  0  0  0  0  0  0  0  0
  -24.2799   -4.1074   -8.6439 C   0  0  0  0  0  0  0  0  0  0  0  0
  -24.1722   -6.5036   -8.4763 C   0  0  0  0  0  0  0  0  0  0  0  0
  -31.2956   -6.6226   -7.1684 C   0  0  0  0  0  0  0  0  0  0  0  0
  -30.3682   -6.4674   -8.2162 C   0  0  0  0  0  0  0  0  0  0  0  0
  -25.2074   -6.6454   -9.4232 C   0  0  0  0  0  0  0  0  0  0  0  0
  -25.7882   -5.4784   -9.9764 C   0  0  0  0  0  0  0  0  0  0  0  0
  -23.7135   -5.2469   -8.0896 C   0  0  0  0  0  0  0  0  0  0  0  0
  -29.3646   -7.3584   -7.8920 C   0  0  0  0  0  0  0  0  0  0  0  0
  -27.7204   -9.2533   -6.7211 C   0  0  0  0  0  0  0  0  0  0  0  0
  -28.8943   -8.9518   -6.1510 C   0  0  0  0  0  0  0  0  0  0  0  0
  -30.3736   -5.5589   -9.3556 C   0  0  0  0  0  0  0  0  0  0  0  0
  -27.3722   -8.5071   -7.9832 C   0  0  0  0  0  0  0  0  0  0  0  0
  -29.0761   -5.1165  -11.4731 C   0  0  0  0  0  0  0  0  0  0  0  0
  -25.6770   -8.0496   -9.7896 C   0  0  1  0  0  0  0  0  0  0  0  0
  -27.6736   -4.5485  -11.1869 C   0  0  2  0  0  0  0  0  0  0  0  0
  -24.5688   -8.8635  -10.4623 C   0  0  0  0  0  0  0  0  0  0  0  0
  -27.1767   -3.7986  -12.4218 C   0  0  0  0  0  0  0  0  0  0  0  0
  -30.9340   -7.5490   -6.2766 N   0  0  0  0  0  0  0  0  0  0  0  0
  -28.1861   -7.6234   -8.5066 N   0  0  0  0  0  0  0  0  0  0  0  0
  -29.7310   -7.9977   -6.7207 N   0  0  0  0  0  0  0  0  0  0  0  0
  -29.5126   -5.9511  -10.3703 N   0  0  0  0  0  0  0  0  0  0  0  0
  -26.1535   -8.7618   -8.5986 N   0  0  0  0  0  0  0  0  0  0  0  0
  -31.0671   -4.5468   -9.3730 O   0  0  0  0  0  0  0  0  0  0  0  0
  -26.7843   -5.6490  -10.9103 O   0  0  0  0  0  0  0  0  0  0  0  0
  -22.7287   -5.1390   -7.1884 F   0  0  0  0  0  0  0  0  0  0  0  0
  -25.7015   -3.2984   -9.9956 H   0  0  0  0  0  0  0  0  0  0  0  0
  -23.9209   -3.1252   -8.3499 H   0  0  0  0  0  0  0  0  0  0  0  0
  -23.7148   -7.3813   -8.0253 H   0  0  0  0  0  0  0  0  0  0  0  0
  -32.2295   -6.0996   -7.0176 H   0  0  0  0  0  0  0  0  0  0  0  0
  -27.0332   -9.9840   -6.3166 H   0  0  0  0  0  0  0  0  0  0  0  0
  -29.2338   -9.4253   -5.2377 H   0  0  0  0  0  0  0  0  0  0  0  0
  -29.7985   -4.3106  -11.6377 H   0  0  0  0  0  0  0  0  0  0  0  0
  -29.0572   -5.7664  -12.3546 H   0  0  0  0  0  0  0  0  0  0  0  0
  -26.5014   -7.9990  -10.5101 H   0  0  0  0  0  0  0  0  0  0  0  0
  -27.7633   -3.8722  -10.3280 H   0  0  0  0  0  0  0  0  0  0  0  0
  -23.7178   -8.9483   -9.7902 H   0  0  0  0  0  0  0  0  0  0  0  0
  -24.2553   -8.3676  -11.3780 H   0  0  0  0  0  0  0  0  0  0  0  0
  -24.9389   -9.8581  -10.7007 H   0  0  0  0  0  0  0  0  0  0  0  0
  -27.0945   -4.4859  -13.2619 H   0  0  0  0  0  0  0  0  0  0  0  0
  -26.1999   -3.3629  -12.2199 H   0  0  0  0  0  0  0  0  0  0  0  0
  -27.8764   -3.0047  -12.6769 H   0  0  0  0  0  0  0  0  0  0  0  0
  -29.1584   -6.9021  -10.3381 H   0  0  0  0  0  0  0  0  0  0  0  0
  -25.5120   -9.4243   -8.1701 H   0  0  0  0  0  0  0  0  0  0  0  0
  1  2  2  0  0  0  0
  1  7  1  0  0  0  0
  2  8  1  0  0  0  0
  3  6  1  0  0  0  0
  3  8  2  0  0  0  0
  4  5  1  0  0  0  0
  4 19  2  0  0  0  0
  5  9  2  0  0  0  0
  5 12  1  0  0  0  0
  6  7  2  0  0  0  0
  6 15  1  0  0  0  0
  7 25  1  0  0  0  0
  8 26  1  0  0  0  0
  9 20  1  0  0  0  0
  9 21  1  0  0  0  0
 10 11  2  0  0  0  0
 10 13  1  0  0  0  0
 11 21  1  0  0  0  0
 12 22  1  0  0  0  0
 12 24  2  0  0  0  0
 13 20  2  0  0  0  0
 13 23  1  0  0  0  0
 14 16  1  0  0  0  0
 14 22  1  0  0  0  0
 15 17  1  0  0  0  0
 15 23  1  0  0  0  0
 16 18  1  0  0  0  0
 16 25  1  0  0  0  0
 19 21  1  0  0  0  0
  1 27  1  0  0  0  0
  2 28  1  0  0  0  0
  3 29  1  0  0  0  0
  4 30  1  0  0  0  0
 10 31  1  0  0  0  0
 11 32  1  0  0  0  0
 14 33  1  0  0  0  0
 14 34  1  0  0  0  0
 15 35  1  1  0  0  0
 16 36  1  1  0  0  0
 17 37  1  0  0  0  0
 17 38  1  0  0  0  0
 17 39  1  0  0  0  0
 18 40  1  0  0  0  0
 18 41  1  0  0  0  0
 18 42  1  0  0  0  0
 22 43  1  0  0  0  0
 23 44  1  0  0  0  0
M  END
> <Chemgauss4>
-10.233427

$$$$
