repotrectinib_1
  -OEChem-08102013353D

 44 47  0     1  0  0  0  0  0999 V2000
  -19.8174  -45.8200  -13.8250 C   0  0  0  0  0  0  0  0  0  0  0  0
  -20.6591  -45.4075  -14.8592 C   0  0  0  0  0  0  0  0  0  0  0  0
  -18.7591  -44.5563  -16.0620 C   0  0  0  0  0  0  0  0  0  0  0  0
  -16.8746  -40.7658  -10.1841 C   0  0  0  0  0  0  0  0  0  0  0  0
  -16.8561  -42.0726  -10.7076 C   0  0  0  0  0  0  0  0  0  0  0  0
  -17.8873  -44.9645  -15.0315 C   0  0  0  0  0  0  0  0  0  0  0  0
  -18.4334  -45.5995  -13.8897 C   0  0  0  0  0  0  0  0  0  0  0  0
  -20.1317  -44.7748  -15.9763 C   0  0  0  0  0  0  0  0  0  0  0  0
  -16.5816  -41.8788  -12.0467 C   0  0  0  0  0  0  0  0  0  0  0  0
  -16.0446  -40.8649  -14.5663 C   0  0  0  0  0  0  0  0  0  0  0  0
  -16.1571  -40.0288  -13.5261 C   0  0  0  0  0  0  0  0  0  0  0  0
  -17.1211  -43.3523  -10.0627 C   0  0  0  0  0  0  0  0  0  0  0  0
  -16.2371  -42.3312  -14.2770 C   0  0  0  0  0  0  0  0  0  0  0  0
  -17.0012  -45.8222  -10.5610 C   0  0  0  0  0  0  0  0  0  0  0  0
  -16.3962  -44.6784  -15.1780 C   0  0  1  0  0  0  0  0  0  0  0  0
  -18.0647  -46.2604  -11.5850 C   0  0  2  0  0  0  0  0  0  0  0  0
  -15.7880  -45.4214  -16.3700 C   0  0  0  0  0  0  0  0  0  0  0  0
  -18.3211  -47.7584  -11.4288 C   0  0  0  0  0  0  0  0  0  0  0  0
  -16.6048  -39.8281  -11.0964 N   0  0  0  0  0  0  0  0  0  0  0  0
  -16.4818  -42.7670  -13.0655 N   0  0  0  0  0  0  0  0  0  0  0  0
  -16.4332  -40.5186  -12.2537 N   0  0  0  0  0  0  0  0  0  0  0  0
  -16.6363  -44.4358  -10.7807 N   0  0  0  0  0  0  0  0  0  0  0  0
  -16.1590  -43.2380  -15.3261 N   0  0  0  0  0  0  0  0  0  0  0  0
  -17.7329  -43.4279   -9.0017 O   0  0  0  0  0  0  0  0  0  0  0  0
  -17.5560  -46.0016  -12.9089 O   0  0  0  0  0  0  0  0  0  0  0  0
  -20.9386  -44.3778  -16.9688 F   0  0  0  0  0  0  0  0  0  0  0  0
  -20.2809  -46.3246  -12.9834 H   0  0  0  0  0  0  0  0  0  0  0  0
  -21.7284  -45.5858  -14.7909 H   0  0  0  0  0  0  0  0  0  0  0  0
  -18.3703  -44.0556  -16.9457 H   0  0  0  0  0  0  0  0  0  0  0  0
  -17.0700  -40.4541   -9.1677 H   0  0  0  0  0  0  0  0  0  0  0  0
  -15.8348  -40.5346  -15.5747 H   0  0  0  0  0  0  0  0  0  0  0  0
  -16.0447  -38.9563  -13.6296 H   0  0  0  0  0  0  0  0  0  0  0  0
  -17.3666  -45.9524   -9.5373 H   0  0  0  0  0  0  0  0  0  0  0  0
  -16.0800  -46.4008  -10.6891 H   0  0  0  0  0  0  0  0  0  0  0  0
  -15.8536  -45.0246  -14.2909 H   0  0  0  0  0  0  0  0  0  0  0  0
  -18.9748  -45.6838  -11.3789 H   0  0  0  0  0  0  0  0  0  0  0  0
  -16.2897  -45.1167  -17.2857 H   0  0  0  0  0  0  0  0  0  0  0  0
  -15.9096  -46.4936  -16.2335 H   0  0  0  0  0  0  0  0  0  0  0  0
  -14.7286  -45.1866  -16.4455 H   0  0  0  0  0  0  0  0  0  0  0  0
  -17.4075  -48.3123  -11.6372 H   0  0  0  0  0  0  0  0  0  0  0  0
  -19.0966  -48.0739  -12.1246 H   0  0  0  0  0  0  0  0  0  0  0  0
  -18.6448  -47.9727  -10.4118 H   0  0  0  0  0  0  0  0  0  0  0  0
  -15.9702  -44.2421  -11.5221 H   0  0  0  0  0  0  0  0  0  0  0  0
  -16.0016  -42.8911  -16.2689 H   0  0  0  0  0  0  0  0  0  0  0  0
  1  2  1  0  0  0  0
  1  7  2  0  0  0  0
  2  8  2  0  0  0  0
  3  6  2  0  0  0  0
  3  8  1  0  0  0  0
  4  5  1  0  0  0  0
  4 19  2  0  0  0  0
  5  9  2  0  0  0  0
  5 12  1  0  0  0  0
  6  7  1  0  0  0  0
  6 15  1  0  0  0  0
  7 25  1  0  0  0  0
  8 26  1  0  0  0  0
  9 20  1  0  0  0  0
  9 21  1  0  0  0  0
 10 11  2  0  0  0  0
 10 13  1  0  0  0  0
 11 21  1  0  0  0  0
 12 22  1  0  0  0  0
 12 24  2  0  0  0  0
 13 20  2  0  0  0  0
 13 23  1  0  0  0  0
 14 16  1  0  0  0  0
 14 22  1  0  0  0  0
 15 17  1  0  0  0  0
 15 23  1  0  0  0  0
 16 18  1  0  0  0  0
 16 25  1  0  0  0  0
 19 21  1  0  0  0  0
  1 27  1  0  0  0  0
  2 28  1  0  0  0  0
  3 29  1  0  0  0  0
  4 30  1  0  0  0  0
 10 31  1  0  0  0  0
 11 32  1  0  0  0  0
 14 33  1  0  0  0  0
 14 34  1  0  0  0  0
 15 35  1  0  0  0  0
 16 36  1  0  0  0  0
 17 37  1  0  0  0  0
 17 38  1  0  0  0  0
 17 39  1  0  0  0  0
 18 40  1  0  0  0  0
 18 41  1  0  0  0  0
 18 42  1  0  0  0  0
 22 43  1  0  0  0  0
 23 44  1  0  0  0  0
M  END
> <Chemgauss4>
-13.946362

$$$$
