larotrectinib_1
  -OEChem-08102013353D

 53 57  0     1  0  0  0  0  0999 V2000
  -20.7864  -44.8171  -14.9999 C   0  0  0  0  0  0  0  0  0  0  0  0
  -20.1038  -45.5025  -13.9951 C   0  0  0  0  0  0  0  0  0  0  0  0
  -18.6819  -44.2455  -16.0399 C   0  0  0  0  0  0  0  0  0  0  0  0
  -17.1027  -40.7634  -10.2816 C   0  0  0  0  0  0  0  0  0  0  0  0
  -17.9992  -44.9309  -15.0350 C   0  0  0  0  0  0  0  0  0  0  0  0
  -17.1098  -42.1028  -10.6933 C   0  0  0  0  0  0  0  0  0  0  0  0
  -20.0755  -44.1886  -16.0224 C   0  0  0  0  0  0  0  0  0  0  0  0
  -18.7102  -45.5594  -14.0126 C   0  0  0  0  0  0  0  0  0  0  0  0
  -16.6796  -42.0724  -12.0005 C   0  0  0  0  0  0  0  0  0  0  0  0
  -15.7805  -41.2880  -14.5015 C   0  0  0  0  0  0  0  0  0  0  0  0
  -15.9906  -40.3627  -13.5613 C   0  0  0  0  0  0  0  0  0  0  0  0
  -16.0568  -42.7158  -14.1131 C   0  0  0  0  0  0  0  0  0  0  0  0
  -17.4536  -44.5835  -10.3655 C   0  0  0  0  0  0  0  0  0  0  0  0
  -14.5939  -44.9910  -16.5295 C   0  0  0  0  0  0  0  0  0  0  0  0
  -15.9458  -45.6591  -16.3294 C   0  0  0  0  0  0  0  0  0  0  0  0
  -19.4514  -47.3520   -8.9528 C   0  0  0  0  0  0  0  0  0  0  0  0
  -14.8490  -43.5520  -16.1000 C   0  0  0  0  0  0  0  0  0  0  0  0
  -18.5499  -46.7993  -10.0474 C   0  0  0  0  0  0  0  0  0  0  0  0
  -19.4222  -44.9608   -8.7598 C   0  0  0  0  0  0  0  0  0  0  0  0
  -16.4886  -44.9904  -15.0560 C   0  0  1  0  0  0  0  0  0  0  0  0
  -20.3418  -46.1648   -8.5998 C   0  0  1  0  0  0  0  0  0  0  0  0
  -16.7028  -39.9296  -11.2410 N   0  0  0  0  0  0  0  0  0  0  0  0
  -16.4835  -43.0592  -12.9181 N   0  0  0  0  0  0  0  0  0  0  0  0
  -16.4405  -40.7354  -12.3026 N   0  0  0  0  0  0  0  0  0  0  0  0
  -15.8504  -43.6681  -15.0469 N   0  0  0  0  0  0  0  0  0  0  0  0
  -18.4236  -45.3810   -9.7451 N   0  0  0  0  0  0  0  0  0  0  0  0
  -17.4739  -43.2519   -9.9489 N   0  0  0  0  0  0  0  0  0  0  0  0
  -16.6706  -45.0559  -11.1917 O   0  0  0  0  0  0  0  0  0  0  0  0
  -21.4122  -46.0602   -9.5314 O   0  0  0  0  0  0  0  0  0  0  0  0
  -20.7313  -43.5310  -16.9876 F   0  0  0  0  0  0  0  0  0  0  0  0
  -18.0626  -46.2200  -13.0428 F   0  0  0  0  0  0  0  0  0  0  0  0
  -21.8715  -44.7741  -14.9878 H   0  0  0  0  0  0  0  0  0  0  0  0
  -20.6572  -45.9913  -13.1987 H   0  0  0  0  0  0  0  0  0  0  0  0
  -18.1371  -43.7530  -16.8407 H   0  0  0  0  0  0  0  0  0  0  0  0
  -17.3738  -40.3531   -9.3191 H   0  0  0  0  0  0  0  0  0  0  0  0
  -15.4309  -41.0530  -15.4980 H   0  0  0  0  0  0  0  0  0  0  0  0
  -15.8228  -39.3069  -13.7370 H   0  0  0  0  0  0  0  0  0  0  0  0
  -13.8040  -45.4671  -15.9437 H   0  0  0  0  0  0  0  0  0  0  0  0
  -14.3093  -45.0239  -17.5867 H   0  0  0  0  0  0  0  0  0  0  0  0
  -16.5928  -45.5485  -17.2007 H   0  0  0  0  0  0  0  0  0  0  0  0
  -15.7921  -46.7259  -16.1412 H   0  0  0  0  0  0  0  0  0  0  0  0
  -20.0159  -48.2221   -9.3006 H   0  0  0  0  0  0  0  0  0  0  0  0
  -18.8453  -47.6386   -8.0856 H   0  0  0  0  0  0  0  0  0  0  0  0
  -13.9381  -43.1013  -15.6907 H   0  0  0  0  0  0  0  0  0  0  0  0
  -15.2008  -42.9405  -16.9367 H   0  0  0  0  0  0  0  0  0  0  0  0
  -17.5683  -47.2817  -10.0779 H   0  0  0  0  0  0  0  0  0  0  0  0
  -19.0158  -46.8880  -11.0351 H   0  0  0  0  0  0  0  0  0  0  0  0
  -19.9395  -44.0631   -9.1112 H   0  0  0  0  0  0  0  0  0  0  0  0
  -18.8854  -44.7413   -7.8309 H   0  0  0  0  0  0  0  0  0  0  0  0
  -16.1631  -45.5882  -14.1594 H   0  0  0  0  0  0  0  0  0  0  0  0
  -20.7627  -46.2431   -7.5935 H   0  0  0  0  0  0  0  0  0  0  0  0
  -17.7729  -43.0227   -8.9580 H   0  0  0  0  0  0  0  0  0  0  0  0
  -21.9430  -45.2941   -9.2610 H   0  0  0  0  0  0  0  0  0  0  0  0
  1  2  1  0  0  0  0
  1  7  2  0  0  0  0
  2  8  2  0  0  0  0
  3  5  2  0  0  0  0
  3  7  1  0  0  0  0
  4  6  1  0  0  0  0
  4 22  2  0  0  0  0
  5  8  1  0  0  0  0
  5 20  1  0  0  0  0
  6  9  2  0  0  0  0
  6 27  1  0  0  0  0
  7 30  1  0  0  0  0
  8 31  1  0  0  0  0
  9 23  1  0  0  0  0
  9 24  1  0  0  0  0
 10 11  2  0  0  0  0
 10 12  1  0  0  0  0
 11 24  1  0  0  0  0
 12 23  2  0  0  0  0
 12 25  1  0  0  0  0
 13 26  1  0  0  0  0
 13 27  1  0  0  0  0
 13 28  2  0  0  0  0
 14 15  1  0  0  0  0
 14 17  1  0  0  0  0
 15 20  1  0  0  0  0
 16 18  1  0  0  0  0
 16 21  1  0  0  0  0
 17 25  1  0  0  0  0
 18 26  1  0  0  0  0
 19 21  1  0  0  0  0
 19 26  1  0  0  0  0
 20 25  1  0  0  0  0
 21 29  1  0  0  0  0
 22 24  1  0  0  0  0
  1 32  1  0  0  0  0
  2 33  1  0  0  0  0
  3 34  1  0  0  0  0
  4 35  1  0  0  0  0
 10 36  1  0  0  0  0
 11 37  1  0  0  0  0
 14 38  1  0  0  0  0
 14 39  1  0  0  0  0
 15 40  1  0  0  0  0
 15 41  1  0  0  0  0
 16 42  1  0  0  0  0
 16 43  1  0  0  0  0
 17 44  1  0  0  0  0
 17 45  1  0  0  0  0
 18 46  1  0  0  0  0
 18 47  1  0  0  0  0
 19 48  1  0  0  0  0
 19 49  1  0  0  0  0
 20 50  1  0  0  0  0
 21 51  1  0  0  0  0
 27 52  1  0  0  0  0
 29 53  1  0  0  0  0
M  END
> <Chemgauss4>
-16.857803

$$$$
