selitrectinib_1
  -OEChem-08102013353D

 49 53  0     1  0  0  0  0  0999 V2000
  -18.6035  -44.1289  -15.8188 C   0  0  0  0  0  0  0  0  0  0  0  0
  -17.0719  -40.7101  -10.4677 C   0  0  0  0  0  0  0  0  0  0  0  0
  -20.3675  -45.1030  -14.5928 C   0  0  0  0  0  0  0  0  0  0  0  0
  -17.0178  -42.0200  -10.9864 C   0  0  0  0  0  0  0  0  0  0  0  0
  -17.6618  -44.8445  -15.0500 C   0  0  0  0  0  0  0  0  0  0  0  0
  -19.9666  -44.2483  -15.5920 C   0  0  0  0  0  0  0  0  0  0  0  0
  -18.1727  -45.6834  -14.0426 C   0  0  0  0  0  0  0  0  0  0  0  0
  -16.6197  -41.8283  -12.2956 C   0  0  0  0  0  0  0  0  0  0  0  0
  -15.7738  -40.8165  -14.7321 C   0  0  0  0  0  0  0  0  0  0  0  0
  -16.0197  -39.9804  -13.7159 C   0  0  0  0  0  0  0  0  0  0  0  0
  -17.2845  -43.2884  -10.3152 C   0  0  0  0  0  0  0  0  0  0  0  0
  -15.9969  -42.2887  -14.4740 C   0  0  0  0  0  0  0  0  0  0  0  0
  -17.3208  -46.5935  -13.1782 C   0  0  0  0  0  0  0  0  0  0  0  0
  -17.8018  -46.7452  -11.7131 C   0  0  0  0  0  0  0  0  0  0  0  0
  -14.6680  -44.3795  -17.2016 C   0  0  0  0  0  0  0  0  0  0  0  0
  -15.7980  -45.2732  -16.7162 C   0  0  0  0  0  0  0  0  0  0  0  0
  -15.0882  -42.9903  -16.7377 C   0  0  0  0  0  0  0  0  0  0  0  0
  -16.1855  -44.6593  -15.3608 C   0  0  1  0  0  0  0  0  0  0  0  0
  -17.1793  -45.7822  -10.6775 C   0  0  1  0  0  0  0  0  0  0  0  0
  -15.7556  -46.2008  -10.3049 C   0  0  0  0  0  0  0  0  0  0  0  0
  -19.5131  -45.8193  -13.8343 N   0  0  0  0  0  0  0  0  0  0  0  0
  -16.7382  -39.7735  -11.3580 N   0  0  0  0  0  0  0  0  0  0  0  0
  -16.3948  -42.7147  -13.2957 N   0  0  0  0  0  0  0  0  0  0  0  0
  -16.4466  -40.4683  -12.4869 N   0  0  0  0  0  0  0  0  0  0  0  0
  -17.1711  -44.4013  -11.1394 N   0  0  0  0  0  0  0  0  0  0  0  0
  -15.7977  -43.2319  -15.4858 N   0  0  0  0  0  0  0  0  0  0  0  0
  -17.5590  -43.3346   -9.1192 O   0  0  0  0  0  0  0  0  0  0  0  0
  -20.8522  -43.5652  -16.3230 F   0  0  0  0  0  0  0  0  0  0  0  0
  -18.2660  -43.4644  -16.6149 H   0  0  0  0  0  0  0  0  0  0  0  0
  -17.3405  -40.3971   -9.4678 H   0  0  0  0  0  0  0  0  0  0  0  0
  -21.4177  -45.2410  -14.3619 H   0  0  0  0  0  0  0  0  0  0  0  0
  -15.4393  -40.4625  -15.6945 H   0  0  0  0  0  0  0  0  0  0  0  0
  -15.9161  -38.9062  -13.8128 H   0  0  0  0  0  0  0  0  0  0  0  0
  -17.3130  -47.5757  -13.6397 H   0  0  0  0  0  0  0  0  0  0  0  0
  -16.3032  -46.2301  -13.1367 H   0  0  0  0  0  0  0  0  0  0  0  0
  -18.8891  -46.6326  -11.6823 H   0  0  0  0  0  0  0  0  0  0  0  0
  -17.5897  -47.7780  -11.4202 H   0  0  0  0  0  0  0  0  0  0  0  0
  -13.7256  -44.6700  -16.7215 H   0  0  0  0  0  0  0  0  0  0  0  0
  -14.5324  -44.4342  -18.2857 H   0  0  0  0  0  0  0  0  0  0  0  0
  -16.6186  -45.2495  -17.4447 H   0  0  0  0  0  0  0  0  0  0  0  0
  -15.4773  -46.3172  -16.6174 H   0  0  0  0  0  0  0  0  0  0  0  0
  -14.2054  -42.3600  -16.6075 H   0  0  0  0  0  0  0  0  0  0  0  0
  -15.7645  -42.5270  -17.4614 H   0  0  0  0  0  0  0  0  0  0  0  0
  -15.5470  -45.0988  -14.6052 H   0  0  0  0  0  0  0  0  0  0  0  0
  -17.7810  -45.7952   -9.7660 H   0  0  0  0  0  0  0  0  0  0  0  0
  -15.1286  -46.1981  -11.1939 H   0  0  0  0  0  0  0  0  0  0  0  0
  -15.7680  -47.2011   -9.8776 H   0  0  0  0  0  0  0  0  0  0  0  0
  -15.3479  -45.5039   -9.5759 H   0  0  0  0  0  0  0  0  0  0  0  0
  -17.1031  -44.2432  -12.1518 H   0  0  0  0  0  0  0  0  0  0  0  0
  1  5  2  0  0  0  0
  1  6  1  0  0  0  0
  2  4  1  0  0  0  0
  2 22  2  0  0  0  0
  3  6  2  0  0  0  0
  3 21  1  0  0  0  0
  4  8  2  0  0  0  0
  4 11  1  0  0  0  0
  5  7  1  0  0  0  0
  5 18  1  0  0  0  0
  6 28  1  0  0  0  0
  7 13  1  0  0  0  0
  7 21  2  0  0  0  0
  8 23  1  0  0  0  0
  8 24  1  0  0  0  0
  9 10  2  0  0  0  0
  9 12  1  0  0  0  0
 10 24  1  0  0  0  0
 11 25  1  0  0  0  0
 11 27  2  0  0  0  0
 12 23  2  0  0  0  0
 12 26  1  0  0  0  0
 13 14  1  0  0  0  0
 14 19  1  0  0  0  0
 15 16  1  0  0  0  0
 15 17  1  0  0  0  0
 16 18  1  0  0  0  0
 17 26  1  0  0  0  0
 18 26  1  0  0  0  0
 19 20  1  0  0  0  0
 19 25  1  0  0  0  0
 22 24  1  0  0  0  0
  1 29  1  0  0  0  0
  2 30  1  0  0  0  0
  3 31  1  0  0  0  0
  9 32  1  0  0  0  0
 10 33  1  0  0  0  0
 13 34  1  0  0  0  0
 13 35  1  0  0  0  0
 14 36  1  0  0  0  0
 14 37  1  0  0  0  0
 15 38  1  0  0  0  0
 15 39  1  0  0  0  0
 16 40  1  0  0  0  0
 16 41  1  0  0  0  0
 17 42  1  0  0  0  0
 17 43  1  0  0  0  0
 18 44  1  0  0  0  0
 19 45  1  0  0  0  0
 20 46  1  0  0  0  0
 20 47  1  0  0  0  0
 20 48  1  0  0  0  0
 25 49  1  0  0  0  0
M  END
> <Chemgauss4>
-16.363087

$$$$
