larotrectinib_1
  -OEChem-07152009433D

 53 57  0     1  0  0  0  0  0999 V2000
   13.2725  -25.5541  -17.9074 C   0  0  0  0  0  0  0  0  0  0  0  0
   13.3763  -26.9335  -18.0865 C   0  0  0  0  0  0  0  0  0  0  0  0
   10.8647  -25.7211  -18.0165 C   0  0  0  0  0  0  0  0  0  0  0  0
    8.6099  -27.2525  -11.9921 C   0  0  0  0  0  0  0  0  0  0  0  0
   10.9685  -27.1005  -18.1956 C   0  0  0  0  0  0  0  0  0  0  0  0
    8.1050  -26.9698  -13.2683 C   0  0  0  0  0  0  0  0  0  0  0  0
   12.0167  -24.9479  -17.8723 C   0  0  0  0  0  0  0  0  0  0  0  0
   12.2243  -27.7067  -18.2307 C   0  0  0  0  0  0  0  0  0  0  0  0
    8.8243  -27.7781  -14.1193 C   0  0  0  0  0  0  0  0  0  0  0  0
   10.5946  -29.6129  -15.2047 C   0  0  0  0  0  0  0  0  0  0  0  0
   10.5911  -29.4080  -13.8848 C   0  0  0  0  0  0  0  0  0  0  0  0
    9.6109  -28.8090  -16.0122 C   0  0  0  0  0  0  0  0  0  0  0  0
    6.5726  -25.8051  -14.9038 C   0  0  0  0  0  0  0  0  0  0  0  0
    8.8661  -29.9307  -19.3801 C   0  0  0  0  0  0  0  0  0  0  0  0
    9.6763  -28.6825  -19.6956 C   0  0  0  0  0  0  0  0  0  0  0  0
    3.6717  -23.6667  -15.7181 C   0  0  0  0  0  0  0  0  0  0  0  0
    9.3124  -30.2888  -17.9685 C   0  0  0  0  0  0  0  0  0  0  0  0
    4.9003  -24.4488  -16.1595 C   0  0  0  0  0  0  0  0  0  0  0  0
    5.0201  -24.0952  -13.7805 C   0  0  0  0  0  0  0  0  0  0  0  0
    9.7182  -27.9362  -18.3523 C   0  0  1  0  0  0  0  0  0  0  0  0
    4.1107  -23.0405  -14.3982 C   0  0  1  0  0  0  0  0  0  0  0  0
    9.5786  -28.1674  -12.0101 N   0  0  0  0  0  0  0  0  0  0  0  0
    8.7823  -27.9445  -15.4702 N   0  0  0  0  0  0  0  0  0  0  0  0
    9.7121  -28.4937  -13.3220 N   0  0  0  0  0  0  0  0  0  0  0  0
    9.5957  -29.0004  -17.3481 N   0  0  0  0  0  0  0  0  0  0  0  0
    5.5575  -24.8402  -14.9210 N   0  0  0  0  0  0  0  0  0  0  0  0
    7.0815  -26.0593  -13.6296 N   0  0  0  0  0  0  0  0  0  0  0  0
    6.9462  -26.3584  -15.9397 O   0  0  0  0  0  0  0  0  0  0  0  0
    4.8659  -21.8597  -14.6426 O   0  0  0  0  0  0  0  0  0  0  0  0
   11.9173  -23.6234  -17.6997 F   0  0  0  0  0  0  0  0  0  0  0  0
   12.3336  -29.0314  -18.4026 F   0  0  0  0  0  0  0  0  0  0  0  0
   14.1691  -24.9521  -17.7933 H   0  0  0  0  0  0  0  0  0  0  0  0
   14.3540  -27.4055  -18.1144 H   0  0  0  0  0  0  0  0  0  0  0  0
    9.8911  -25.2396  -17.9874 H   0  0  0  0  0  0  0  0  0  0  0  0
    8.3150  -26.8297  -11.0421 H   0  0  0  0  0  0  0  0  0  0  0  0
   11.2580  -30.3127  -15.6952 H   0  0  0  0  0  0  0  0  0  0  0  0
   11.2586  -29.9345  -13.2131 H   0  0  0  0  0  0  0  0  0  0  0  0
    7.7896  -29.7551  -19.4450 H   0  0  0  0  0  0  0  0  0  0  0  0
    9.1283  -30.7365  -20.0741 H   0  0  0  0  0  0  0  0  0  0  0  0
   10.6597  -28.9219  -20.1027 H   0  0  0  0  0  0  0  0  0  0  0  0
    9.1318  -28.0795  -20.4284 H   0  0  0  0  0  0  0  0  0  0  0  0
    3.3787  -22.9254  -16.4672 H   0  0  0  0  0  0  0  0  0  0  0  0
    2.8370  -24.3566  -15.5479 H   0  0  0  0  0  0  0  0  0  0  0  0
    8.5060  -30.7892  -17.4211 H   0  0  0  0  0  0  0  0  0  0  0  0
   10.1905  -30.9421  -17.9795 H   0  0  0  0  0  0  0  0  0  0  0  0
    4.6547  -25.3257  -16.7660 H   0  0  0  0  0  0  0  0  0  0  0  0
    5.5985  -23.8178  -16.7207 H   0  0  0  0  0  0  0  0  0  0  0  0
    5.8388  -23.6713  -13.1915 H   0  0  0  0  0  0  0  0  0  0  0  0
    4.4520  -24.8056  -13.1707 H   0  0  0  0  0  0  0  0  0  0  0  0
    8.8373  -27.2378  -18.2919 H   0  0  0  0  0  0  0  0  0  0  0  0
    3.2638  -22.7851  -13.7551 H   0  0  0  0  0  0  0  0  0  0  0  0
    6.6729  -25.5475  -12.7960 H   0  0  0  0  0  0  0  0  0  0  0  0
    5.1176  -21.5054  -13.7750 H   0  0  0  0  0  0  0  0  0  0  0  0
  1  2  1  0  0  0  0
  1  7  2  0  0  0  0
  2  8  2  0  0  0  0
  3  5  2  0  0  0  0
  3  7  1  0  0  0  0
  4  6  1  0  0  0  0
  4 22  2  0  0  0  0
  5  8  1  0  0  0  0
  5 20  1  0  0  0  0
  6  9  2  0  0  0  0
  6 27  1  0  0  0  0
  7 30  1  0  0  0  0
  8 31  1  0  0  0  0
  9 23  1  0  0  0  0
  9 24  1  0  0  0  0
 10 11  2  0  0  0  0
 10 12  1  0  0  0  0
 11 24  1  0  0  0  0
 12 23  2  0  0  0  0
 12 25  1  0  0  0  0
 13 26  1  0  0  0  0
 13 27  1  0  0  0  0
 13 28  2  0  0  0  0
 14 15  1  0  0  0  0
 14 17  1  0  0  0  0
 15 20  1  0  0  0  0
 16 18  1  0  0  0  0
 16 21  1  0  0  0  0
 17 25  1  0  0  0  0
 18 26  1  0  0  0  0
 19 21  1  0  0  0  0
 19 26  1  0  0  0  0
 20 25  1  0  0  0  0
 21 29  1  0  0  0  0
 22 24  1  0  0  0  0
  1 32  1  0  0  0  0
  2 33  1  0  0  0  0
  3 34  1  0  0  0  0
  4 35  1  0  0  0  0
 10 36  1  0  0  0  0
 11 37  1  0  0  0  0
 14 38  1  0  0  0  0
 14 39  1  0  0  0  0
 15 40  1  0  0  0  0
 15 41  1  0  0  0  0
 16 42  1  0  0  0  0
 16 43  1  0  0  0  0
 17 44  1  0  0  0  0
 17 45  1  0  0  0  0
 18 46  1  0  0  0  0
 18 47  1  0  0  0  0
 19 48  1  0  0  0  0
 19 49  1  0  0  0  0
 20 50  1  0  0  0  0
 21 51  1  0  0  0  0
 27 52  1  0  0  0  0
 29 53  1  0  0  0  0
M  END
> <Chemgauss4>
-12.883341

$$$$
selitrectinib_1
  -OEChem-07152009433D

 49 53  0     1  0  0  0  0  0999 V2000
   11.4639  -26.3934  -18.0025 C   0  0  0  0  0  0  0  0  0  0  0  0
    8.1877  -27.2685  -12.4195 C   0  0  0  0  0  0  0  0  0  0  0  0
   10.9328  -24.0996  -17.8599 C   0  0  0  0  0  0  0  0  0  0  0  0
    7.9747  -26.9955  -13.7863 C   0  0  0  0  0  0  0  0  0  0  0  0
   10.1156  -26.6975  -18.2843 C   0  0  0  0  0  0  0  0  0  0  0  0
   11.8831  -25.0898  -17.7818 C   0  0  0  0  0  0  0  0  0  0  0  0
    9.2181  -25.6150  -18.3296 C   0  0  0  0  0  0  0  0  0  0  0  0
    8.8675  -27.8366  -14.4223 C   0  0  0  0  0  0  0  0  0  0  0  0
   10.7705  -29.7371  -15.0871 C   0  0  0  0  0  0  0  0  0  0  0  0
   10.4854  -29.5059  -13.7997 C   0  0  0  0  0  0  0  0  0  0  0  0
    7.0265  -26.0741  -14.4047 C   0  0  0  0  0  0  0  0  0  0  0  0
   10.0255  -28.9114  -16.1102 C   0  0  0  0  0  0  0  0  0  0  0  0
    7.7530  -25.7376  -18.7037 C   0  0  0  0  0  0  0  0  0  0  0  0
    6.7985  -24.7889  -17.9357 C   0  0  0  0  0  0  0  0  0  0  0  0
   10.5429  -30.1708  -19.5341 C   0  0  0  0  0  0  0  0  0  0  0  0
   10.3110  -28.6981  -19.8314 C   0  0  0  0  0  0  0  0  0  0  0  0
   11.0061  -30.1726  -18.0826 C   0  0  0  0  0  0  0  0  0  0  0  0
    9.7359  -28.1512  -18.5145 C   0  0  1  0  0  0  0  0  0  0  0  0
    6.1442  -25.3541  -16.6552 C   0  0  1  0  0  0  0  0  0  0  0  0
    5.0013  -26.3162  -16.9854 C   0  0  0  0  0  0  0  0  0  0  0  0
    9.6333  -24.3309  -18.1361 N   0  0  0  0  0  0  0  0  0  0  0  0
    9.1234  -28.1954  -12.2040 N   0  0  0  0  0  0  0  0  0  0  0  0
    9.1281  -28.0255  -15.7388 N   0  0  0  0  0  0  0  0  0  0  0  0
    9.5355  -28.5555  -13.4461 N   0  0  0  0  0  0  0  0  0  0  0  0
    7.1053  -26.0248  -15.7912 N   0  0  0  0  0  0  0  0  0  0  0  0
   10.2819  -29.0605  -17.4759 N   0  0  0  0  0  0  0  0  0  0  0  0
    6.2259  -25.4313  -13.7311 O   0  0  0  0  0  0  0  0  0  0  0  0
   13.1617  -24.8102  -17.5130 F   0  0  0  0  0  0  0  0  0  0  0  0
   12.2052  -27.1919  -17.9562 H   0  0  0  0  0  0  0  0  0  0  0  0
    7.6931  -26.8280  -11.5643 H   0  0  0  0  0  0  0  0  0  0  0  0
   11.1925  -23.0601  -17.6959 H   0  0  0  0  0  0  0  0  0  0  0  0
   11.5019  -30.4711  -15.3870 H   0  0  0  0  0  0  0  0  0  0  0  0
   10.9874  -30.0274  -12.9935 H   0  0  0  0  0  0  0  0  0  0  0  0
    7.6640  -25.5279  -19.7647 H   0  0  0  0  0  0  0  0  0  0  0  0
    7.4016  -26.7447  -18.5263 H   0  0  0  0  0  0  0  0  0  0  0  0
    7.3395  -23.8749  -17.6748 H   0  0  0  0  0  0  0  0  0  0  0  0
    6.0165  -24.4940  -18.6420 H   0  0  0  0  0  0  0  0  0  0  0  0
    9.6028  -30.7272  -19.6323 H   0  0  0  0  0  0  0  0  0  0  0  0
   11.2792  -30.6190  -20.2078 H   0  0  0  0  0  0  0  0  0  0  0  0
   11.2640  -28.2286  -20.1075 H   0  0  0  0  0  0  0  0  0  0  0  0
    9.6203  -28.5563  -20.6712 H   0  0  0  0  0  0  0  0  0  0  0  0
   10.7696  -31.1332  -17.6190 H   0  0  0  0  0  0  0  0  0  0  0  0
   12.0825  -29.9908  -18.0180 H   0  0  0  0  0  0  0  0  0  0  0  0
    8.6638  -28.2987  -18.5365 H   0  0  0  0  0  0  0  0  0  0  0  0
    5.7296  -24.5311  -16.0689 H   0  0  0  0  0  0  0  0  0  0  0  0
    5.3821  -27.1501  -17.5710 H   0  0  0  0  0  0  0  0  0  0  0  0
    4.2376  -25.7947  -17.5582 H   0  0  0  0  0  0  0  0  0  0  0  0
    4.5635  -26.6947  -16.0643 H   0  0  0  0  0  0  0  0  0  0  0  0
    7.9137  -26.4702  -16.2416 H   0  0  0  0  0  0  0  0  0  0  0  0
  1  5  2  0  0  0  0
  1  6  1  0  0  0  0
  2  4  1  0  0  0  0
  2 22  2  0  0  0  0
  3  6  2  0  0  0  0
  3 21  1  0  0  0  0
  4  8  2  0  0  0  0
  4 11  1  0  0  0  0
  5  7  1  0  0  0  0
  5 18  1  0  0  0  0
  6 28  1  0  0  0  0
  7 13  1  0  0  0  0
  7 21  2  0  0  0  0
  8 23  1  0  0  0  0
  8 24  1  0  0  0  0
  9 10  2  0  0  0  0
  9 12  1  0  0  0  0
 10 24  1  0  0  0  0
 11 25  1  0  0  0  0
 11 27  2  0  0  0  0
 12 23  2  0  0  0  0
 12 26  1  0  0  0  0
 13 14  1  0  0  0  0
 14 19  1  0  0  0  0
 15 16  1  0  0  0  0
 15 17  1  0  0  0  0
 16 18  1  0  0  0  0
 17 26  1  0  0  0  0
 18 26  1  0  0  0  0
 19 20  1  0  0  0  0
 19 25  1  0  0  0  0
 22 24  1  0  0  0  0
  1 29  1  0  0  0  0
  2 30  1  0  0  0  0
  3 31  1  0  0  0  0
  9 32  1  0  0  0  0
 10 33  1  0  0  0  0
 13 34  1  0  0  0  0
 13 35  1  0  0  0  0
 14 36  1  0  0  0  0
 14 37  1  0  0  0  0
 15 38  1  0  0  0  0
 15 39  1  0  0  0  0
 16 40  1  0  0  0  0
 16 41  1  0  0  0  0
 17 42  1  0  0  0  0
 17 43  1  0  0  0  0
 18 44  1  0  0  0  0
 19 45  1  0  0  0  0
 20 46  1  0  0  0  0
 20 47  1  0  0  0  0
 20 48  1  0  0  0  0
 25 49  1  0  0  0  0
M  END
> <Chemgauss4>
-9.498465

$$$$
repotrectinib_1
  -OEChem-07152009433D

 44 47  0     1  0  0  0  0  0999 V2000
   11.7221  -27.8832  -18.5568 C   0  0  0  0  0  0  0  0  0  0  0  0
   13.0711  -28.1987  -18.4167 C   0  0  0  0  0  0  0  0  0  0  0  0
   12.5347  -29.6740  -16.5783 C   0  0  0  0  0  0  0  0  0  0  0  0
    5.7889  -25.4968  -14.5468 C   0  0  0  0  0  0  0  0  0  0  0  0
    6.4860  -26.2586  -15.5045 C   0  0  0  0  0  0  0  0  0  0  0  0
   11.1649  -29.3941  -16.7144 C   0  0  0  0  0  0  0  0  0  0  0  0
   10.7747  -28.4806  -17.7193 C   0  0  0  0  0  0  0  0  0  0  0  0
   13.4773  -29.0883  -17.4266 C   0  0  0  0  0  0  0  0  0  0  0  0
    7.3387  -27.0395  -14.7438 C   0  0  0  0  0  0  0  0  0  0  0  0
    8.9334  -28.0776  -12.7287 C   0  0  0  0  0  0  0  0  0  0  0  0
    7.9628  -27.2092  -12.4219 C   0  0  0  0  0  0  0  0  0  0  0  0
    6.4333  -26.1855  -16.9589 C   0  0  0  0  0  0  0  0  0  0  0  0
    9.0614  -28.4664  -14.1799 C   0  0  0  0  0  0  0  0  0  0  0  0
    7.5416  -27.2738  -18.9260 C   0  0  0  0  0  0  0  0  0  0  0  0
   10.1364  -30.0656  -15.8141 C   0  0  1  0  0  0  0  0  0  0  0  0
    8.7654  -28.2106  -19.0104 C   0  0  2  0  0  0  0  0  0  0  0  0
   10.4056  -31.5572  -15.5772 C   0  0  0  0  0  0  0  0  0  0  0  0
    8.3284  -29.6598  -19.2219 C   0  0  0  0  0  0  0  0  0  0  0  0
    6.1569  -25.7629  -13.2924 N   0  0  0  0  0  0  0  0  0  0  0  0
    8.2746  -27.9587  -15.0992 N   0  0  0  0  0  0  0  0  0  0  0  0
    7.1534  -26.6764  -13.4182 N   0  0  0  0  0  0  0  0  0  0  0  0
    6.9608  -27.3005  -17.5909 N   0  0  0  0  0  0  0  0  0  0  0  0
   10.0396  -29.3947  -14.5197 N   0  0  0  0  0  0  0  0  0  0  0  0
    6.0106  -25.1896  -17.5389 O   0  0  0  0  0  0  0  0  0  0  0  0
    9.4653  -28.0916  -17.7597 O   0  0  0  0  0  0  0  0  0  0  0  0
   14.7778  -29.3864  -17.2870 F   0  0  0  0  0  0  0  0  0  0  0  0
   11.4523  -27.1820  -19.3319 H   0  0  0  0  0  0  0  0  0  0  0  0
   13.8065  -27.7558  -19.0801 H   0  0  0  0  0  0  0  0  0  0  0  0
   12.8895  -30.3497  -15.8053 H   0  0  0  0  0  0  0  0  0  0  0  0
    5.0186  -24.7565  -14.7125 H   0  0  0  0  0  0  0  0  0  0  0  0
    9.6138  -28.4925  -11.9959 H   0  0  0  0  0  0  0  0  0  0  0  0
    7.7727  -26.8871  -11.4049 H   0  0  0  0  0  0  0  0  0  0  0  0
    7.8176  -26.2455  -19.1877 H   0  0  0  0  0  0  0  0  0  0  0  0
    6.7488  -27.6119  -19.6044 H   0  0  0  0  0  0  0  0  0  0  0  0
    9.1324  -30.0188  -16.2847 H   0  0  0  0  0  0  0  0  0  0  0  0
    9.3848  -27.8554  -19.8486 H   0  0  0  0  0  0  0  0  0  0  0  0
   11.3814  -31.6837  -15.1137 H   0  0  0  0  0  0  0  0  0  0  0  0
   10.3874  -32.0875  -16.5266 H   0  0  0  0  0  0  0  0  0  0  0  0
    9.6406  -31.9674  -14.9217 H   0  0  0  0  0  0  0  0  0  0  0  0
    7.7187  -29.9871  -18.3817 H   0  0  0  0  0  0  0  0  0  0  0  0
    9.2045  -30.3013  -19.2987 H   0  0  0  0  0  0  0  0  0  0  0  0
    7.7461  -29.7390  -20.1382 H   0  0  0  0  0  0  0  0  0  0  0  0
    6.9431  -28.1762  -17.1046 H   0  0  0  0  0  0  0  0  0  0  0  0
   10.7929  -29.5759  -13.8494 H   0  0  0  0  0  0  0  0  0  0  0  0
  1  2  1  0  0  0  0
  1  7  2  0  0  0  0
  2  8  2  0  0  0  0
  3  6  2  0  0  0  0
  3  8  1  0  0  0  0
  4  5  1  0  0  0  0
  4 19  2  0  0  0  0
  5  9  2  0  0  0  0
  5 12  1  0  0  0  0
  6  7  1  0  0  0  0
  6 15  1  0  0  0  0
  7 25  1  0  0  0  0
  8 26  1  0  0  0  0
  9 20  1  0  0  0  0
  9 21  1  0  0  0  0
 10 11  2  0  0  0  0
 10 13  1  0  0  0  0
 11 21  1  0  0  0  0
 12 22  1  0  0  0  0
 12 24  2  0  0  0  0
 13 20  2  0  0  0  0
 13 23  1  0  0  0  0
 14 16  1  0  0  0  0
 14 22  1  0  0  0  0
 15 17  1  0  0  0  0
 15 23  1  0  0  0  0
 16 18  1  0  0  0  0
 16 25  1  0  0  0  0
 19 21  1  0  0  0  0
  1 27  1  0  0  0  0
  2 28  1  0  0  0  0
  3 29  1  0  0  0  0
  4 30  1  0  0  0  0
 10 31  1  0  0  0  0
 11 32  1  0  0  0  0
 14 33  1  0  0  0  0
 14 34  1  0  0  0  0
 15 35  1  0  0  0  0
 16 36  1  0  0  0  0
 17 37  1  0  0  0  0
 17 38  1  0  0  0  0
 17 39  1  0  0  0  0
 18 40  1  0  0  0  0
 18 41  1  0  0  0  0
 18 42  1  0  0  0  0
 22 43  1  0  0  0  0
 23 44  1  0  0  0  0
M  END
> <Chemgauss4>
-9.909308

$$$$
