larotrectinib_1
  -OEChem-07152009403D

 53 57  0     1  0  0  0  0  0999 V2000
  -20.7864  -44.8171  -14.9999 C   0  0  0  0  0  0  0  0  0  0  0  0
  -20.1038  -45.5025  -13.9951 C   0  0  0  0  0  0  0  0  0  0  0  0
  -18.6819  -44.2455  -16.0399 C   0  0  0  0  0  0  0  0  0  0  0  0
  -17.1027  -40.7634  -10.2816 C   0  0  0  0  0  0  0  0  0  0  0  0
  -17.9992  -44.9309  -15.0350 C   0  0  0  0  0  0  0  0  0  0  0  0
  -17.1098  -42.1028  -10.6933 C   0  0  0  0  0  0  0  0  0  0  0  0
  -20.0755  -44.1886  -16.0224 C   0  0  0  0  0  0  0  0  0  0  0  0
  -18.7102  -45.5594  -14.0126 C   0  0  0  0  0  0  0  0  0  0  0  0
  -16.6796  -42.0724  -12.0005 C   0  0  0  0  0  0  0  0  0  0  0  0
  -15.7805  -41.2880  -14.5015 C   0  0  0  0  0  0  0  0  0  0  0  0
  -15.9906  -40.3627  -13.5613 C   0  0  0  0  0  0  0  0  0  0  0  0
  -16.0568  -42.7158  -14.1131 C   0  0  0  0  0  0  0  0  0  0  0  0
  -17.4536  -44.5835  -10.3655 C   0  0  0  0  0  0  0  0  0  0  0  0
  -14.5939  -44.9910  -16.5295 C   0  0  0  0  0  0  0  0  0  0  0  0
  -15.9458  -45.6591  -16.3294 C   0  0  0  0  0  0  0  0  0  0  0  0
  -19.4514  -47.3520   -8.9528 C   0  0  0  0  0  0  0  0  0  0  0  0
  -14.8490  -43.5520  -16.1000 C   0  0  0  0  0  0  0  0  0  0  0  0
  -18.5499  -46.7993  -10.0474 C   0  0  0  0  0  0  0  0  0  0  0  0
  -19.4222  -44.9608   -8.7598 C   0  0  0  0  0  0  0  0  0  0  0  0
  -16.4886  -44.9904  -15.0560 C   0  0  1  0  0  0  0  0  0  0  0  0
  -20.3418  -46.1648   -8.5998 C   0  0  1  0  0  0  0  0  0  0  0  0
  -16.7028  -39.9296  -11.2410 N   0  0  0  0  0  0  0  0  0  0  0  0
  -16.4835  -43.0592  -12.9181 N   0  0  0  0  0  0  0  0  0  0  0  0
  -16.4405  -40.7354  -12.3026 N   0  0  0  0  0  0  0  0  0  0  0  0
  -15.8504  -43.6681  -15.0469 N   0  0  0  0  0  0  0  0  0  0  0  0
  -18.4236  -45.3810   -9.7451 N   0  0  0  0  0  0  0  0  0  0  0  0
  -17.4739  -43.2519   -9.9489 N   0  0  0  0  0  0  0  0  0  0  0  0
  -16.6706  -45.0559  -11.1917 O   0  0  0  0  0  0  0  0  0  0  0  0
  -21.4122  -46.0602   -9.5314 O   0  0  0  0  0  0  0  0  0  0  0  0
  -20.7313  -43.5310  -16.9876 F   0  0  0  0  0  0  0  0  0  0  0  0
  -18.0626  -46.2200  -13.0428 F   0  0  0  0  0  0  0  0  0  0  0  0
  -21.8715  -44.7741  -14.9878 H   0  0  0  0  0  0  0  0  0  0  0  0
  -20.6572  -45.9913  -13.1987 H   0  0  0  0  0  0  0  0  0  0  0  0
  -18.1371  -43.7530  -16.8407 H   0  0  0  0  0  0  0  0  0  0  0  0
  -17.3738  -40.3531   -9.3191 H   0  0  0  0  0  0  0  0  0  0  0  0
  -15.4309  -41.0530  -15.4980 H   0  0  0  0  0  0  0  0  0  0  0  0
  -15.8228  -39.3069  -13.7370 H   0  0  0  0  0  0  0  0  0  0  0  0
  -13.8040  -45.4671  -15.9437 H   0  0  0  0  0  0  0  0  0  0  0  0
  -14.3093  -45.0239  -17.5867 H   0  0  0  0  0  0  0  0  0  0  0  0
  -16.5928  -45.5485  -17.2007 H   0  0  0  0  0  0  0  0  0  0  0  0
  -15.7921  -46.7259  -16.1412 H   0  0  0  0  0  0  0  0  0  0  0  0
  -20.0159  -48.2221   -9.3006 H   0  0  0  0  0  0  0  0  0  0  0  0
  -18.8453  -47.6386   -8.0856 H   0  0  0  0  0  0  0  0  0  0  0  0
  -13.9381  -43.1013  -15.6907 H   0  0  0  0  0  0  0  0  0  0  0  0
  -15.2008  -42.9405  -16.9367 H   0  0  0  0  0  0  0  0  0  0  0  0
  -17.5683  -47.2817  -10.0779 H   0  0  0  0  0  0  0  0  0  0  0  0
  -19.0158  -46.8880  -11.0351 H   0  0  0  0  0  0  0  0  0  0  0  0
  -19.9395  -44.0631   -9.1112 H   0  0  0  0  0  0  0  0  0  0  0  0
  -18.8854  -44.7413   -7.8309 H   0  0  0  0  0  0  0  0  0  0  0  0
  -16.1631  -45.5882  -14.1594 H   0  0  0  0  0  0  0  0  0  0  0  0
  -20.7627  -46.2431   -7.5935 H   0  0  0  0  0  0  0  0  0  0  0  0
  -17.7729  -43.0227   -8.9580 H   0  0  0  0  0  0  0  0  0  0  0  0
  -21.9430  -45.2941   -9.2610 H   0  0  0  0  0  0  0  0  0  0  0  0
  1  2  1  0  0  0  0
  1  7  2  0  0  0  0
  2  8  2  0  0  0  0
  3  5  2  0  0  0  0
  3  7  1  0  0  0  0
  4  6  1  0  0  0  0
  4 22  2  0  0  0  0
  5  8  1  0  0  0  0
  5 20  1  0  0  0  0
  6  9  2  0  0  0  0
  6 27  1  0  0  0  0
  7 30  1  0  0  0  0
  8 31  1  0  0  0  0
  9 23  1  0  0  0  0
  9 24  1  0  0  0  0
 10 11  2  0  0  0  0
 10 12  1  0  0  0  0
 11 24  1  0  0  0  0
 12 23  2  0  0  0  0
 12 25  1  0  0  0  0
 13 26  1  0  0  0  0
 13 27  1  0  0  0  0
 13 28  2  0  0  0  0
 14 15  1  0  0  0  0
 14 17  1  0  0  0  0
 15 20  1  0  0  0  0
 16 18  1  0  0  0  0
 16 21  1  0  0  0  0
 17 25  1  0  0  0  0
 18 26  1  0  0  0  0
 19 21  1  0  0  0  0
 19 26  1  0  0  0  0
 20 25  1  0  0  0  0
 21 29  1  0  0  0  0
 22 24  1  0  0  0  0
  1 32  1  0  0  0  0
  2 33  1  0  0  0  0
  3 34  1  0  0  0  0
  4 35  1  0  0  0  0
 10 36  1  0  0  0  0
 11 37  1  0  0  0  0
 14 38  1  0  0  0  0
 14 39  1  0  0  0  0
 15 40  1  0  0  0  0
 15 41  1  0  0  0  0
 16 42  1  0  0  0  0
 16 43  1  0  0  0  0
 17 44  1  0  0  0  0
 17 45  1  0  0  0  0
 18 46  1  0  0  0  0
 18 47  1  0  0  0  0
 19 48  1  0  0  0  0
 19 49  1  0  0  0  0
 20 50  1  0  0  0  0
 21 51  1  0  0  0  0
 27 52  1  0  0  0  0
 29 53  1  0  0  0  0
M  END
> <Chemgauss4>
-16.857803

$$$$
selitrectinib_1
  -OEChem-07152009403D

 49 53  0     1  0  0  0  0  0999 V2000
  -18.6035  -44.1289  -15.8188 C   0  0  0  0  0  0  0  0  0  0  0  0
  -17.0719  -40.7101  -10.4677 C   0  0  0  0  0  0  0  0  0  0  0  0
  -20.3675  -45.1030  -14.5928 C   0  0  0  0  0  0  0  0  0  0  0  0
  -17.0178  -42.0200  -10.9864 C   0  0  0  0  0  0  0  0  0  0  0  0
  -17.6618  -44.8445  -15.0500 C   0  0  0  0  0  0  0  0  0  0  0  0
  -19.9666  -44.2483  -15.5920 C   0  0  0  0  0  0  0  0  0  0  0  0
  -18.1727  -45.6834  -14.0426 C   0  0  0  0  0  0  0  0  0  0  0  0
  -16.6197  -41.8283  -12.2956 C   0  0  0  0  0  0  0  0  0  0  0  0
  -15.7738  -40.8165  -14.7321 C   0  0  0  0  0  0  0  0  0  0  0  0
  -16.0197  -39.9804  -13.7159 C   0  0  0  0  0  0  0  0  0  0  0  0
  -17.2845  -43.2884  -10.3152 C   0  0  0  0  0  0  0  0  0  0  0  0
  -15.9969  -42.2887  -14.4740 C   0  0  0  0  0  0  0  0  0  0  0  0
  -17.3208  -46.5935  -13.1782 C   0  0  0  0  0  0  0  0  0  0  0  0
  -17.8018  -46.7452  -11.7131 C   0  0  0  0  0  0  0  0  0  0  0  0
  -14.6680  -44.3795  -17.2016 C   0  0  0  0  0  0  0  0  0  0  0  0
  -15.7980  -45.2732  -16.7162 C   0  0  0  0  0  0  0  0  0  0  0  0
  -15.0882  -42.9903  -16.7377 C   0  0  0  0  0  0  0  0  0  0  0  0
  -16.1855  -44.6593  -15.3608 C   0  0  1  0  0  0  0  0  0  0  0  0
  -17.1793  -45.7822  -10.6775 C   0  0  1  0  0  0  0  0  0  0  0  0
  -15.7556  -46.2008  -10.3049 C   0  0  0  0  0  0  0  0  0  0  0  0
  -19.5131  -45.8193  -13.8343 N   0  0  0  0  0  0  0  0  0  0  0  0
  -16.7382  -39.7735  -11.3580 N   0  0  0  0  0  0  0  0  0  0  0  0
  -16.3948  -42.7147  -13.2957 N   0  0  0  0  0  0  0  0  0  0  0  0
  -16.4466  -40.4683  -12.4869 N   0  0  0  0  0  0  0  0  0  0  0  0
  -17.1711  -44.4013  -11.1394 N   0  0  0  0  0  0  0  0  0  0  0  0
  -15.7977  -43.2319  -15.4858 N   0  0  0  0  0  0  0  0  0  0  0  0
  -17.5590  -43.3346   -9.1192 O   0  0  0  0  0  0  0  0  0  0  0  0
  -20.8522  -43.5652  -16.3230 F   0  0  0  0  0  0  0  0  0  0  0  0
  -18.2660  -43.4644  -16.6149 H   0  0  0  0  0  0  0  0  0  0  0  0
  -17.3405  -40.3971   -9.4678 H   0  0  0  0  0  0  0  0  0  0  0  0
  -21.4177  -45.2410  -14.3619 H   0  0  0  0  0  0  0  0  0  0  0  0
  -15.4393  -40.4625  -15.6945 H   0  0  0  0  0  0  0  0  0  0  0  0
  -15.9161  -38.9062  -13.8128 H   0  0  0  0  0  0  0  0  0  0  0  0
  -17.3130  -47.5757  -13.6397 H   0  0  0  0  0  0  0  0  0  0  0  0
  -16.3032  -46.2301  -13.1367 H   0  0  0  0  0  0  0  0  0  0  0  0
  -18.8891  -46.6326  -11.6823 H   0  0  0  0  0  0  0  0  0  0  0  0
  -17.5897  -47.7780  -11.4202 H   0  0  0  0  0  0  0  0  0  0  0  0
  -13.7256  -44.6700  -16.7215 H   0  0  0  0  0  0  0  0  0  0  0  0
  -14.5324  -44.4342  -18.2857 H   0  0  0  0  0  0  0  0  0  0  0  0
  -16.6186  -45.2495  -17.4447 H   0  0  0  0  0  0  0  0  0  0  0  0
  -15.4773  -46.3172  -16.6174 H   0  0  0  0  0  0  0  0  0  0  0  0
  -14.2054  -42.3600  -16.6075 H   0  0  0  0  0  0  0  0  0  0  0  0
  -15.7645  -42.5270  -17.4614 H   0  0  0  0  0  0  0  0  0  0  0  0
  -15.5470  -45.0988  -14.6052 H   0  0  0  0  0  0  0  0  0  0  0  0
  -17.7810  -45.7952   -9.7660 H   0  0  0  0  0  0  0  0  0  0  0  0
  -15.1286  -46.1981  -11.1939 H   0  0  0  0  0  0  0  0  0  0  0  0
  -15.7680  -47.2011   -9.8776 H   0  0  0  0  0  0  0  0  0  0  0  0
  -15.3479  -45.5039   -9.5759 H   0  0  0  0  0  0  0  0  0  0  0  0
  -17.1031  -44.2432  -12.1518 H   0  0  0  0  0  0  0  0  0  0  0  0
  1  5  2  0  0  0  0
  1  6  1  0  0  0  0
  2  4  1  0  0  0  0
  2 22  2  0  0  0  0
  3  6  2  0  0  0  0
  3 21  1  0  0  0  0
  4  8  2  0  0  0  0
  4 11  1  0  0  0  0
  5  7  1  0  0  0  0
  5 18  1  0  0  0  0
  6 28  1  0  0  0  0
  7 13  1  0  0  0  0
  7 21  2  0  0  0  0
  8 23  1  0  0  0  0
  8 24  1  0  0  0  0
  9 10  2  0  0  0  0
  9 12  1  0  0  0  0
 10 24  1  0  0  0  0
 11 25  1  0  0  0  0
 11 27  2  0  0  0  0
 12 23  2  0  0  0  0
 12 26  1  0  0  0  0
 13 14  1  0  0  0  0
 14 19  1  0  0  0  0
 15 16  1  0  0  0  0
 15 17  1  0  0  0  0
 16 18  1  0  0  0  0
 17 26  1  0  0  0  0
 18 26  1  0  0  0  0
 19 20  1  0  0  0  0
 19 25  1  0  0  0  0
 22 24  1  0  0  0  0
  1 29  1  0  0  0  0
  2 30  1  0  0  0  0
  3 31  1  0  0  0  0
  9 32  1  0  0  0  0
 10 33  1  0  0  0  0
 13 34  1  0  0  0  0
 13 35  1  0  0  0  0
 14 36  1  0  0  0  0
 14 37  1  0  0  0  0
 15 38  1  0  0  0  0
 15 39  1  0  0  0  0
 16 40  1  0  0  0  0
 16 41  1  0  0  0  0
 17 42  1  0  0  0  0
 17 43  1  0  0  0  0
 18 44  1  0  0  0  0
 19 45  1  0  0  0  0
 20 46  1  0  0  0  0
 20 47  1  0  0  0  0
 20 48  1  0  0  0  0
 25 49  1  0  0  0  0
M  END
> <Chemgauss4>
-16.363087

$$$$
repotrectinib_1
  -OEChem-07152009403D

 44 47  0     1  0  0  0  0  0999 V2000
  -19.8174  -45.8200  -13.8250 C   0  0  0  0  0  0  0  0  0  0  0  0
  -20.6591  -45.4075  -14.8592 C   0  0  0  0  0  0  0  0  0  0  0  0
  -18.7591  -44.5563  -16.0620 C   0  0  0  0  0  0  0  0  0  0  0  0
  -16.8746  -40.7658  -10.1841 C   0  0  0  0  0  0  0  0  0  0  0  0
  -16.8561  -42.0726  -10.7076 C   0  0  0  0  0  0  0  0  0  0  0  0
  -17.8873  -44.9645  -15.0315 C   0  0  0  0  0  0  0  0  0  0  0  0
  -18.4334  -45.5995  -13.8897 C   0  0  0  0  0  0  0  0  0  0  0  0
  -20.1317  -44.7748  -15.9763 C   0  0  0  0  0  0  0  0  0  0  0  0
  -16.5816  -41.8788  -12.0467 C   0  0  0  0  0  0  0  0  0  0  0  0
  -16.0446  -40.8649  -14.5663 C   0  0  0  0  0  0  0  0  0  0  0  0
  -16.1571  -40.0288  -13.5261 C   0  0  0  0  0  0  0  0  0  0  0  0
  -17.1211  -43.3523  -10.0627 C   0  0  0  0  0  0  0  0  0  0  0  0
  -16.2371  -42.3312  -14.2770 C   0  0  0  0  0  0  0  0  0  0  0  0
  -17.0012  -45.8222  -10.5610 C   0  0  0  0  0  0  0  0  0  0  0  0
  -16.3962  -44.6784  -15.1780 C   0  0  1  0  0  0  0  0  0  0  0  0
  -18.0647  -46.2604  -11.5850 C   0  0  2  0  0  0  0  0  0  0  0  0
  -15.7880  -45.4214  -16.3700 C   0  0  0  0  0  0  0  0  0  0  0  0
  -18.3211  -47.7584  -11.4288 C   0  0  0  0  0  0  0  0  0  0  0  0
  -16.6048  -39.8281  -11.0964 N   0  0  0  0  0  0  0  0  0  0  0  0
  -16.4818  -42.7670  -13.0655 N   0  0  0  0  0  0  0  0  0  0  0  0
  -16.4332  -40.5186  -12.2537 N   0  0  0  0  0  0  0  0  0  0  0  0
  -16.6363  -44.4358  -10.7807 N   0  0  0  0  0  0  0  0  0  0  0  0
  -16.1590  -43.2380  -15.3261 N   0  0  0  0  0  0  0  0  0  0  0  0
  -17.7329  -43.4279   -9.0017 O   0  0  0  0  0  0  0  0  0  0  0  0
  -17.5560  -46.0016  -12.9089 O   0  0  0  0  0  0  0  0  0  0  0  0
  -20.9386  -44.3778  -16.9688 F   0  0  0  0  0  0  0  0  0  0  0  0
  -20.2809  -46.3246  -12.9834 H   0  0  0  0  0  0  0  0  0  0  0  0
  -21.7284  -45.5858  -14.7909 H   0  0  0  0  0  0  0  0  0  0  0  0
  -18.3703  -44.0556  -16.9457 H   0  0  0  0  0  0  0  0  0  0  0  0
  -17.0700  -40.4541   -9.1677 H   0  0  0  0  0  0  0  0  0  0  0  0
  -15.8348  -40.5346  -15.5747 H   0  0  0  0  0  0  0  0  0  0  0  0
  -16.0447  -38.9563  -13.6296 H   0  0  0  0  0  0  0  0  0  0  0  0
  -17.3666  -45.9524   -9.5373 H   0  0  0  0  0  0  0  0  0  0  0  0
  -16.0800  -46.4008  -10.6891 H   0  0  0  0  0  0  0  0  0  0  0  0
  -15.8536  -45.0246  -14.2909 H   0  0  0  0  0  0  0  0  0  0  0  0
  -18.9748  -45.6838  -11.3789 H   0  0  0  0  0  0  0  0  0  0  0  0
  -16.2897  -45.1167  -17.2857 H   0  0  0  0  0  0  0  0  0  0  0  0
  -15.9096  -46.4936  -16.2335 H   0  0  0  0  0  0  0  0  0  0  0  0
  -14.7286  -45.1866  -16.4455 H   0  0  0  0  0  0  0  0  0  0  0  0
  -17.4075  -48.3123  -11.6372 H   0  0  0  0  0  0  0  0  0  0  0  0
  -19.0966  -48.0739  -12.1246 H   0  0  0  0  0  0  0  0  0  0  0  0
  -18.6448  -47.9727  -10.4118 H   0  0  0  0  0  0  0  0  0  0  0  0
  -15.9702  -44.2421  -11.5221 H   0  0  0  0  0  0  0  0  0  0  0  0
  -16.0016  -42.8911  -16.2689 H   0  0  0  0  0  0  0  0  0  0  0  0
  1  2  1  0  0  0  0
  1  7  2  0  0  0  0
  2  8  2  0  0  0  0
  3  6  2  0  0  0  0
  3  8  1  0  0  0  0
  4  5  1  0  0  0  0
  4 19  2  0  0  0  0
  5  9  2  0  0  0  0
  5 12  1  0  0  0  0
  6  7  1  0  0  0  0
  6 15  1  0  0  0  0
  7 25  1  0  0  0  0
  8 26  1  0  0  0  0
  9 20  1  0  0  0  0
  9 21  1  0  0  0  0
 10 11  2  0  0  0  0
 10 13  1  0  0  0  0
 11 21  1  0  0  0  0
 12 22  1  0  0  0  0
 12 24  2  0  0  0  0
 13 20  2  0  0  0  0
 13 23  1  0  0  0  0
 14 16  1  0  0  0  0
 14 22  1  0  0  0  0
 15 17  1  0  0  0  0
 15 23  1  0  0  0  0
 16 18  1  0  0  0  0
 16 25  1  0  0  0  0
 19 21  1  0  0  0  0
  1 27  1  0  0  0  0
  2 28  1  0  0  0  0
  3 29  1  0  0  0  0
  4 30  1  0  0  0  0
 10 31  1  0  0  0  0
 11 32  1  0  0  0  0
 14 33  1  0  0  0  0
 14 34  1  0  0  0  0
 15 35  1  0  0  0  0
 16 36  1  0  0  0  0
 17 37  1  0  0  0  0
 17 38  1  0  0  0  0
 17 39  1  0  0  0  0
 18 40  1  0  0  0  0
 18 41  1  0  0  0  0
 18 42  1  0  0  0  0
 22 43  1  0  0  0  0
 23 44  1  0  0  0  0
M  END
> <Chemgauss4>
-13.946362

$$$$
