larotrectinib_1
  -OEChem-07152010023D

 53 57  0     1  0  0  0  0  0999 V2000
   -4.7512  -14.7966   18.1966 C   0  0  0  0  0  0  0  0  0  0  0  0
   -4.8412  -16.1883   18.1733 C   0  0  0  0  0  0  0  0  0  0  0  0
   -6.3855  -14.7207   19.9744 C   0  0  0  0  0  0  0  0  0  0  0  0
  -10.9283  -17.5499   15.5804 C   0  0  0  0  0  0  0  0  0  0  0  0
   -6.4755  -16.1125   19.9510 C   0  0  0  0  0  0  0  0  0  0  0  0
   -9.6821  -17.2066   16.1216 C   0  0  0  0  0  0  0  0  0  0  0  0
   -5.5234  -14.0627   19.0972 C   0  0  0  0  0  0  0  0  0  0  0  0
   -5.7034  -16.8463   19.0505 C   0  0  0  0  0  0  0  0  0  0  0  0
   -9.9086  -17.0748   17.4729 C   0  0  0  0  0  0  0  0  0  0  0  0
  -11.0512  -16.9841   19.9958 C   0  0  0  0  0  0  0  0  0  0  0  0
  -11.8134  -17.2901   18.9423 C   0  0  0  0  0  0  0  0  0  0  0  0
   -9.5982  -16.7074   19.7165 C   0  0  0  0  0  0  0  0  0  0  0  0
   -8.1955  -17.1338   14.0809 C   0  0  0  0  0  0  0  0  0  0  0  0
   -8.0349  -15.4178   22.7675 C   0  0  0  0  0  0  0  0  0  0  0  0
   -7.0858  -16.5439   22.3793 C   0  0  0  0  0  0  0  0  0  0  0  0
   -4.8012  -18.5926   14.1198 C   0  0  0  0  0  0  0  0  0  0  0  0
   -9.2920  -15.7153   21.9601 C   0  0  0  0  0  0  0  0  0  0  0  0
   -5.9317  -17.8609   14.8288 C   0  0  0  0  0  0  0  0  0  0  0  0
   -6.3081  -17.7523   12.4528 C   0  0  0  0  0  0  0  0  0  0  0  0
   -7.4143  -16.8252   20.9054 C   0  0  1  0  0  0  0  0  0  0  0  0
   -4.8280  -18.0005   12.7143 C   0  0  1  0  0  0  0  0  0  0  0  0
  -11.8872  -17.6331   16.5019 N   0  0  0  0  0  0  0  0  0  0  0  0
   -9.0830  -16.7573   18.5082 N   0  0  0  0  0  0  0  0  0  0  0  0
  -11.2599  -17.3409   17.6709 N   0  0  0  0  0  0  0  0  0  0  0  0
   -8.8089  -16.3973   20.7658 N   0  0  0  0  0  0  0  0  0  0  0  0
   -6.8954  -17.5592   13.7804 N   0  0  0  0  0  0  0  0  0  0  0  0
   -8.4478  -17.0290   15.4493 N   0  0  0  0  0  0  0  0  0  0  0  0
   -9.0072  -16.8798   13.1890 O   0  0  0  0  0  0  0  0  0  0  0  0
   -4.1363  -16.7572   12.6924 O   0  0  0  0  0  0  0  0  0  0  0  0
   -5.4363  -12.7264   19.1199 F   0  0  0  0  0  0  0  0  0  0  0  0
   -5.7835  -18.1838   19.0208 F   0  0  0  0  0  0  0  0  0  0  0  0
   -4.0787  -14.2840   17.5152 H   0  0  0  0  0  0  0  0  0  0  0  0
   -4.2405  -16.7597   17.4718 H   0  0  0  0  0  0  0  0  0  0  0  0
   -6.9826  -14.1403   20.6724 H   0  0  0  0  0  0  0  0  0  0  0  0
  -11.1842  -17.7437   14.5483 H   0  0  0  0  0  0  0  0  0  0  0  0
  -11.4307  -16.9303   21.0075 H   0  0  0  0  0  0  0  0  0  0  0  0
  -12.8710  -17.5066   19.0334 H   0  0  0  0  0  0  0  0  0  0  0  0
   -8.2274  -15.3901   23.8439 H   0  0  0  0  0  0  0  0  0  0  0  0
   -7.6144  -14.4506   22.4681 H   0  0  0  0  0  0  0  0  0  0  0  0
   -6.0391  -16.2786   22.5601 H   0  0  0  0  0  0  0  0  0  0  0  0
   -7.3216  -17.4312   22.9803 H   0  0  0  0  0  0  0  0  0  0  0  0
   -3.8452  -18.4420   14.6298 H   0  0  0  0  0  0  0  0  0  0  0  0
   -5.0237  -19.6652   14.0804 H   0  0  0  0  0  0  0  0  0  0  0  0
   -9.9625  -16.3827   22.5165 H   0  0  0  0  0  0  0  0  0  0  0  0
   -9.8382  -14.7963   21.7162 H   0  0  0  0  0  0  0  0  0  0  0  0
   -6.3924  -18.4534   15.6249 H   0  0  0  0  0  0  0  0  0  0  0  0
   -5.5918  -16.9087   15.2513 H   0  0  0  0  0  0  0  0  0  0  0  0
   -6.4974  -16.8739   11.8288 H   0  0  0  0  0  0  0  0  0  0  0  0
   -6.7895  -18.6320   12.0127 H   0  0  0  0  0  0  0  0  0  0  0  0
   -7.3199  -17.9274   20.7076 H   0  0  0  0  0  0  0  0  0  0  0  0
   -4.3742  -18.6641   11.9728 H   0  0  0  0  0  0  0  0  0  0  0  0
   -7.6560  -16.7691   16.1046 H   0  0  0  0  0  0  0  0  0  0  0  0
   -4.1843  -16.4277   11.7809 H   0  0  0  0  0  0  0  0  0  0  0  0
  1  2  1  0  0  0  0
  1  7  2  0  0  0  0
  2  8  2  0  0  0  0
  3  5  2  0  0  0  0
  3  7  1  0  0  0  0
  4  6  1  0  0  0  0
  4 22  2  0  0  0  0
  5  8  1  0  0  0  0
  5 20  1  0  0  0  0
  6  9  2  0  0  0  0
  6 27  1  0  0  0  0
  7 30  1  0  0  0  0
  8 31  1  0  0  0  0
  9 23  1  0  0  0  0
  9 24  1  0  0  0  0
 10 11  2  0  0  0  0
 10 12  1  0  0  0  0
 11 24  1  0  0  0  0
 12 23  2  0  0  0  0
 12 25  1  0  0  0  0
 13 26  1  0  0  0  0
 13 27  1  0  0  0  0
 13 28  2  0  0  0  0
 14 15  1  0  0  0  0
 14 17  1  0  0  0  0
 15 20  1  0  0  0  0
 16 18  1  0  0  0  0
 16 21  1  0  0  0  0
 17 25  1  0  0  0  0
 18 26  1  0  0  0  0
 19 21  1  0  0  0  0
 19 26  1  0  0  0  0
 20 25  1  0  0  0  0
 21 29  1  0  0  0  0
 22 24  1  0  0  0  0
  1 32  1  0  0  0  0
  2 33  1  0  0  0  0
  3 34  1  0  0  0  0
  4 35  1  0  0  0  0
 10 36  1  0  0  0  0
 11 37  1  0  0  0  0
 14 38  1  0  0  0  0
 14 39  1  0  0  0  0
 15 40  1  0  0  0  0
 15 41  1  0  0  0  0
 16 42  1  0  0  0  0
 16 43  1  0  0  0  0
 17 44  1  0  0  0  0
 17 45  1  0  0  0  0
 18 46  1  0  0  0  0
 18 47  1  0  0  0  0
 19 48  1  0  0  0  0
 19 49  1  0  0  0  0
 20 50  1  0  0  0  0
 21 51  1  0  0  0  0
 27 52  1  0  0  0  0
 29 53  1  0  0  0  0
M  END
> <Chemgauss4>
-15.318114

$$$$
selitrectinib_1
  -OEChem-07152010023D

 49 53  0     1  0  0  0  0  0999 V2000
  -10.4515  -16.1865   14.1244 C   0  0  0  0  0  0  0  0  0  0  0  0
   -8.0255  -16.0874   20.8590 C   0  0  0  0  0  0  0  0  0  0  0  0
  -12.6894  -16.1723   14.8842 C   0  0  0  0  0  0  0  0  0  0  0  0
   -8.8285  -16.6869   19.8717 C   0  0  0  0  0  0  0  0  0  0  0  0
  -10.1904  -17.3240   14.9097 C   0  0  0  0  0  0  0  0  0  0  0  0
  -11.7080  -15.5975   14.1082 C   0  0  0  0  0  0  0  0  0  0  0  0
  -11.2435  -17.7942   15.7171 C   0  0  0  0  0  0  0  0  0  0  0  0
   -8.1328  -16.4688   18.6982 C   0  0  0  0  0  0  0  0  0  0  0  0
   -6.3234  -15.6764   16.7625 C   0  0  0  0  0  0  0  0  0  0  0  0
   -6.1293  -15.3134   18.0350 C   0  0  0  0  0  0  0  0  0  0  0  0
  -10.0740  -17.4217   20.0131 C   0  0  0  0  0  0  0  0  0  0  0  0
   -7.5123  -16.5687   16.4727 C   0  0  0  0  0  0  0  0  0  0  0  0
  -11.0704  -18.9529   16.6763 C   0  0  0  0  0  0  0  0  0  0  0  0
  -12.0822  -19.0644   17.8389 C   0  0  0  0  0  0  0  0  0  0  0  0
   -6.9903  -18.3246   13.3127 C   0  0  0  0  0  0  0  0  0  0  0  0
   -8.4990  -18.4640   13.3978 C   0  0  0  0  0  0  0  0  0  0  0  0
   -6.7067  -17.0652   14.1199 C   0  0  0  0  0  0  0  0  0  0  0  0
   -8.8280  -17.9881   14.8270 C   0  0  1  0  0  0  0  0  0  0  0  0
  -12.2467  -17.8146   18.7305 C   0  0  1  0  0  0  0  0  0  0  0  0
  -13.0651  -18.1253   19.9827 C   0  0  0  0  0  0  0  0  0  0  0  0
  -12.4882  -17.2485   15.6723 N   0  0  0  0  0  0  0  0  0  0  0  0
   -6.9463  -15.4835   20.3593 N   0  0  0  0  0  0  0  0  0  0  0  0
   -8.3634  -16.8850   17.4263 N   0  0  0  0  0  0  0  0  0  0  0  0
   -7.0136  -15.7194   19.0237 N   0  0  0  0  0  0  0  0  0  0  0  0
  -10.9755  -17.1458   18.9973 N   0  0  0  0  0  0  0  0  0  0  0  0
   -7.7105  -17.0838   15.1843 N   0  0  0  0  0  0  0  0  0  0  0  0
  -10.2641  -18.1753   20.9608 O   0  0  0  0  0  0  0  0  0  0  0  0
  -11.9559  -14.5182   13.3595 F   0  0  0  0  0  0  0  0  0  0  0  0
   -9.6653  -15.7498   13.5114 H   0  0  0  0  0  0  0  0  0  0  0  0
   -8.1793  -16.0666   21.9281 H   0  0  0  0  0  0  0  0  0  0  0  0
  -13.6967  -15.7711   14.8982 H   0  0  0  0  0  0  0  0  0  0  0  0
   -5.6700  -15.3459   15.9683 H   0  0  0  0  0  0  0  0  0  0  0  0
   -5.3011  -14.6847   18.3378 H   0  0  0  0  0  0  0  0  0  0  0  0
  -11.1202  -19.8763   16.0890 H   0  0  0  0  0  0  0  0  0  0  0  0
  -10.0776  -18.9203   17.1294 H   0  0  0  0  0  0  0  0  0  0  0  0
  -13.0623  -19.3337   17.4351 H   0  0  0  0  0  0  0  0  0  0  0  0
  -11.7596  -19.9086   18.4558 H   0  0  0  0  0  0  0  0  0  0  0  0
   -6.5044  -19.1904   13.7787 H   0  0  0  0  0  0  0  0  0  0  0  0
   -6.6375  -18.2469   12.2802 H   0  0  0  0  0  0  0  0  0  0  0  0
   -8.9680  -17.8406   12.6255 H   0  0  0  0  0  0  0  0  0  0  0  0
   -8.8246  -19.4974   13.2269 H   0  0  0  0  0  0  0  0  0  0  0  0
   -5.6848  -17.0929   14.5062 H   0  0  0  0  0  0  0  0  0  0  0  0
   -6.8402  -16.1699   13.5057 H   0  0  0  0  0  0  0  0  0  0  0  0
   -8.7562  -18.8561   15.4806 H   0  0  0  0  0  0  0  0  0  0  0  0
  -12.8422  -17.0680   18.1342 H   0  0  0  0  0  0  0  0  0  0  0  0
  -12.5324  -18.8465   20.5988 H   0  0  0  0  0  0  0  0  0  0  0  0
  -14.0289  -18.5405   19.6966 H   0  0  0  0  0  0  0  0  0  0  0  0
  -13.2223  -17.2125   20.5533 H   0  0  0  0  0  0  0  0  0  0  0  0
  -10.7355  -16.3511   18.3599 H   0  0  0  0  0  0  0  0  0  0  0  0
  1  5  2  0  0  0  0
  1  6  1  0  0  0  0
  2  4  1  0  0  0  0
  2 22  2  0  0  0  0
  3  6  2  0  0  0  0
  3 21  1  0  0  0  0
  4  8  2  0  0  0  0
  4 11  1  0  0  0  0
  5  7  1  0  0  0  0
  5 18  1  0  0  0  0
  6 28  1  0  0  0  0
  7 13  1  0  0  0  0
  7 21  2  0  0  0  0
  8 23  1  0  0  0  0
  8 24  1  0  0  0  0
  9 10  2  0  0  0  0
  9 12  1  0  0  0  0
 10 24  1  0  0  0  0
 11 25  1  0  0  0  0
 11 27  2  0  0  0  0
 12 23  2  0  0  0  0
 12 26  1  0  0  0  0
 13 14  1  0  0  0  0
 14 19  1  0  0  0  0
 15 16  1  0  0  0  0
 15 17  1  0  0  0  0
 16 18  1  0  0  0  0
 17 26  1  0  0  0  0
 18 26  1  0  0  0  0
 19 20  1  0  0  0  0
 19 25  1  0  0  0  0
 22 24  1  0  0  0  0
  1 29  1  0  0  0  0
  2 30  1  0  0  0  0
  3 31  1  0  0  0  0
  9 32  1  0  0  0  0
 10 33  1  0  0  0  0
 13 34  1  0  0  0  0
 13 35  1  0  0  0  0
 14 36  1  0  0  0  0
 14 37  1  0  0  0  0
 15 38  1  0  0  0  0
 15 39  1  0  0  0  0
 16 40  1  0  0  0  0
 16 41  1  0  0  0  0
 17 42  1  0  0  0  0
 17 43  1  0  0  0  0
 18 44  1  0  0  0  0
 19 45  1  0  0  0  0
 20 46  1  0  0  0  0
 20 47  1  0  0  0  0
 20 48  1  0  0  0  0
 25 49  1  0  0  0  0
M  END
> <Chemgauss4>
-12.482884

$$$$
repotrectinib_1
  -OEChem-07152010023D

 44 47  0     1  0  0  0  0  0999 V2000
   -5.5041  -14.1301   17.7174 C   0  0  0  0  0  0  0  0  0  0  0  0
   -5.0394  -13.3035   18.7370 C   0  0  0  0  0  0  0  0  0  0  0  0
   -5.8676  -14.8685   20.3828 C   0  0  0  0  0  0  0  0  0  0  0  0
  -11.7371  -17.7251   15.4359 C   0  0  0  0  0  0  0  0  0  0  0  0
  -10.3635  -17.5417   15.6875 C   0  0  0  0  0  0  0  0  0  0  0  0
   -6.3229  -15.7339   19.3743 C   0  0  0  0  0  0  0  0  0  0  0  0
   -6.1336  -15.3391   18.0309 C   0  0  0  0  0  0  0  0  0  0  0  0
   -5.2250  -13.6692   20.0669 C   0  0  0  0  0  0  0  0  0  0  0  0
  -10.2909  -17.4663   17.0676 C   0  0  0  0  0  0  0  0  0  0  0  0
  -10.8485  -17.1364   19.7623 C   0  0  0  0  0  0  0  0  0  0  0  0
  -11.8470  -17.3826   18.9063 C   0  0  0  0  0  0  0  0  0  0  0  0
   -9.2690  -17.3539   14.7441 C   0  0  0  0  0  0  0  0  0  0  0  0
   -9.4557  -17.0975   19.1861 C   0  0  0  0  0  0  0  0  0  0  0  0
   -6.7995  -16.9296   14.8072 C   0  0  0  0  0  0  0  0  0  0  0  0
   -6.9870  -17.0595   19.7224 C   0  0  1  0  0  0  0  0  0  0  0  0
   -5.8639  -16.5587   15.9775 C   0  0  2  0  0  0  0  0  0  0  0  0
   -6.2977  -17.8115   20.8682 C   0  0  0  0  0  0  0  0  0  0  0  0
   -5.0560  -17.7729   16.4347 C   0  0  0  0  0  0  0  0  0  0  0  0
  -12.4754  -17.7649   16.5463 N   0  0  0  0  0  0  0  0  0  0  0  0
   -9.2374  -17.2725   17.9040 N   0  0  0  0  0  0  0  0  0  0  0  0
  -11.5881  -17.5496   17.5510 N   0  0  0  0  0  0  0  0  0  0  0  0
   -8.0158  -17.5625   15.2980 N   0  0  0  0  0  0  0  0  0  0  0  0
   -8.3968  -16.8787   20.0608 N   0  0  0  0  0  0  0  0  0  0  0  0
   -9.4692  -16.9861   13.5901 O   0  0  0  0  0  0  0  0  0  0  0  0
   -6.7044  -16.1018   17.0512 O   0  0  0  0  0  0  0  0  0  0  0  0
   -4.7837  -12.8692   21.0491 F   0  0  0  0  0  0  0  0  0  0  0  0
   -5.3469  -13.8037   16.7005 H   0  0  0  0  0  0  0  0  0  0  0  0
   -4.5292  -12.3764   18.4976 H   0  0  0  0  0  0  0  0  0  0  0  0
   -6.0112  -15.1133   21.4314 H   0  0  0  0  0  0  0  0  0  0  0  0
  -12.2333  -17.8371   14.4820 H   0  0  0  0  0  0  0  0  0  0  0  0
  -11.0009  -16.9623   20.8199 H   0  0  0  0  0  0  0  0  0  0  0  0
  -12.8799  -17.4564   19.2256 H   0  0  0  0  0  0  0  0  0  0  0  0
   -7.0576  -16.0427   14.2167 H   0  0  0  0  0  0  0  0  0  0  0  0
   -6.3226  -17.6669   14.1499 H   0  0  0  0  0  0  0  0  0  0  0  0
   -6.9431  -17.7458   18.8515 H   0  0  0  0  0  0  0  0  0  0  0  0
   -5.2038  -15.7538   15.6184 H   0  0  0  0  0  0  0  0  0  0  0  0
   -6.3019  -17.1957   21.7647 H   0  0  0  0  0  0  0  0  0  0  0  0
   -5.2701  -18.0367   20.5919 H   0  0  0  0  0  0  0  0  0  0  0  0
   -6.8280  -18.7400   21.0676 H   0  0  0  0  0  0  0  0  0  0  0  0
   -5.7296  -18.5532   16.7844 H   0  0  0  0  0  0  0  0  0  0  0  0
   -4.3888  -17.4871   17.2459 H   0  0  0  0  0  0  0  0  0  0  0  0
   -4.4655  -18.1563   15.6045 H   0  0  0  0  0  0  0  0  0  0  0  0
   -7.9386  -18.1832   16.0805 H   0  0  0  0  0  0  0  0  0  0  0  0
   -8.6025  -16.4947   20.9881 H   0  0  0  0  0  0  0  0  0  0  0  0
  1  2  1  0  0  0  0
  1  7  2  0  0  0  0
  2  8  2  0  0  0  0
  3  6  2  0  0  0  0
  3  8  1  0  0  0  0
  4  5  1  0  0  0  0
  4 19  2  0  0  0  0
  5  9  2  0  0  0  0
  5 12  1  0  0  0  0
  6  7  1  0  0  0  0
  6 15  1  0  0  0  0
  7 25  1  0  0  0  0
  8 26  1  0  0  0  0
  9 20  1  0  0  0  0
  9 21  1  0  0  0  0
 10 11  2  0  0  0  0
 10 13  1  0  0  0  0
 11 21  1  0  0  0  0
 12 22  1  0  0  0  0
 12 24  2  0  0  0  0
 13 20  2  0  0  0  0
 13 23  1  0  0  0  0
 14 16  1  0  0  0  0
 14 22  1  0  0  0  0
 15 17  1  0  0  0  0
 15 23  1  0  0  0  0
 16 18  1  0  0  0  0
 16 25  1  0  0  0  0
 19 21  1  0  0  0  0
  1 27  1  0  0  0  0
  2 28  1  0  0  0  0
  3 29  1  0  0  0  0
  4 30  1  0  0  0  0
 10 31  1  0  0  0  0
 11 32  1  0  0  0  0
 14 33  1  0  0  0  0
 14 34  1  0  0  0  0
 15 35  1  0  0  0  0
 16 36  1  0  0  0  0
 17 37  1  0  0  0  0
 17 38  1  0  0  0  0
 17 39  1  0  0  0  0
 18 40  1  0  0  0  0
 18 41  1  0  0  0  0
 18 42  1  0  0  0  0
 22 43  1  0  0  0  0
 23 44  1  0  0  0  0
M  END
> <Chemgauss4>
-11.702802

$$$$
