larotrectinib_1
  -OEChem-07152009523D

 53 57  0     1  0  0  0  0  0999 V2000
  -16.9044  -11.7791   19.5159 C   0  0  0  0  0  0  0  0  0  0  0  0
  -16.3279  -12.9398   19.0002 C   0  0  0  0  0  0  0  0  0  0  0  0
  -18.7157  -11.9735   17.9290 C   0  0  0  0  0  0  0  0  0  0  0  0
  -14.1029  -12.4824   12.1789 C   0  0  0  0  0  0  0  0  0  0  0  0
  -18.1392  -13.1342   17.4132 C   0  0  0  0  0  0  0  0  0  0  0  0
  -14.6359  -13.3679   13.1252 C   0  0  0  0  0  0  0  0  0  0  0  0
  -18.0983  -11.2960   18.9804 C   0  0  0  0  0  0  0  0  0  0  0  0
  -16.9453  -13.6174   17.9488 C   0  0  0  0  0  0  0  0  0  0  0  0
  -15.8953  -12.8814   13.3935 C   0  0  0  0  0  0  0  0  0  0  0  0
  -18.2311  -11.3912   13.4434 C   0  0  0  0  0  0  0  0  0  0  0  0
  -17.2290  -11.0116   12.6459 C   0  0  0  0  0  0  0  0  0  0  0  0
  -18.0011  -12.6287   14.2690 C   0  0  0  0  0  0  0  0  0  0  0  0
  -12.7529  -15.0179   13.4588 C   0  0  0  0  0  0  0  0  0  0  0  0
  -21.1375  -13.2513   16.0554 C   0  0  0  0  0  0  0  0  0  0  0  0
  -20.2320  -14.3375   16.6212 C   0  0  0  0  0  0  0  0  0  0  0  0
  -10.5243  -16.5970   15.9469 C   0  0  0  0  0  0  0  0  0  0  0  0
  -20.4107  -12.8006   14.7948 C   0  0  0  0  0  0  0  0  0  0  0  0
  -10.8704  -16.2770   14.4999 C   0  0  0  0  0  0  0  0  0  0  0  0
  -12.8255  -15.9239   15.8608 C   0  0  0  0  0  0  0  0  0  0  0  0
  -18.8123  -13.8685   16.2695 C   0  0  1  0  0  0  0  0  0  0  0  0
  -11.8836  -16.8835   16.5770 C   0  0  1  0  0  0  0  0  0  0  0  0
  -14.9442  -11.5000   11.8585 N   0  0  0  0  0  0  0  0  0  0  0  0
  -16.8817  -13.3163   14.2254 N   0  0  0  0  0  0  0  0  0  0  0  0
  -16.0515  -11.7446   12.6065 N   0  0  0  0  0  0  0  0  0  0  0  0
  -19.0002  -13.0317   15.0813 N   0  0  0  0  0  0  0  0  0  0  0  0
  -12.2021  -15.6919   14.5561 N   0  0  0  0  0  0  0  0  0  0  0  0
  -14.0334  -14.5164   13.6951 N   0  0  0  0  0  0  0  0  0  0  0  0
  -12.1276  -14.8961   12.4038 O   0  0  0  0  0  0  0  0  0  0  0  0
  -12.2814  -18.2210   16.2986 O   0  0  0  0  0  0  0  0  0  0  0  0
  -18.6520  -10.1817   19.4762 F   0  0  0  0  0  0  0  0  0  0  0  0
  -16.3841  -14.7317   17.4594 F   0  0  0  0  0  0  0  0  0  0  0  0
  -16.4251  -11.2524   20.3358 H   0  0  0  0  0  0  0  0  0  0  0  0
  -15.3981  -13.3158   19.4168 H   0  0  0  0  0  0  0  0  0  0  0  0
  -19.6457  -11.5894   17.5188 H   0  0  0  0  0  0  0  0  0  0  0  0
  -13.1319  -12.5074   11.7049 H   0  0  0  0  0  0  0  0  0  0  0  0
  -19.1693  -10.8570   13.5131 H   0  0  0  0  0  0  0  0  0  0  0  0
  -17.2913  -10.1360   12.0108 H   0  0  0  0  0  0  0  0  0  0  0  0
  -22.1461  -13.6193   15.8464 H   0  0  0  0  0  0  0  0  0  0  0  0
  -21.2151  -12.4185   16.7643 H   0  0  0  0  0  0  0  0  0  0  0  0
  -20.3979  -14.4928   17.6921 H   0  0  0  0  0  0  0  0  0  0  0  0
  -20.4421  -15.2816   16.1029 H   0  0  0  0  0  0  0  0  0  0  0  0
   -9.8338  -17.4427   16.0155 H   0  0  0  0  0  0  0  0  0  0  0  0
  -10.0679  -15.7196   16.4196 H   0  0  0  0  0  0  0  0  0  0  0  0
  -20.7134  -13.4090   13.9330 H   0  0  0  0  0  0  0  0  0  0  0  0
  -20.6171  -11.7477   14.5682 H   0  0  0  0  0  0  0  0  0  0  0  0
  -10.1603  -15.5887   14.0318 H   0  0  0  0  0  0  0  0  0  0  0  0
  -10.9325  -17.1856   13.8907 H   0  0  0  0  0  0  0  0  0  0  0  0
  -13.8346  -16.3249   15.7271 H   0  0  0  0  0  0  0  0  0  0  0  0
  -12.8743  -14.9561   16.3709 H   0  0  0  0  0  0  0  0  0  0  0  0
  -18.1760  -14.7618   16.0242 H   0  0  0  0  0  0  0  0  0  0  0  0
  -11.8799  -16.7400   17.6612 H   0  0  0  0  0  0  0  0  0  0  0  0
  -14.6634  -15.0091   14.3911 H   0  0  0  0  0  0  0  0  0  0  0  0
  -13.1463  -18.3478   16.7200 H   0  0  0  0  0  0  0  0  0  0  0  0
  1  2  1  0  0  0  0
  1  7  2  0  0  0  0
  2  8  2  0  0  0  0
  3  5  2  0  0  0  0
  3  7  1  0  0  0  0
  4  6  1  0  0  0  0
  4 22  2  0  0  0  0
  5  8  1  0  0  0  0
  5 20  1  0  0  0  0
  6  9  2  0  0  0  0
  6 27  1  0  0  0  0
  7 30  1  0  0  0  0
  8 31  1  0  0  0  0
  9 23  1  0  0  0  0
  9 24  1  0  0  0  0
 10 11  2  0  0  0  0
 10 12  1  0  0  0  0
 11 24  1  0  0  0  0
 12 23  2  0  0  0  0
 12 25  1  0  0  0  0
 13 26  1  0  0  0  0
 13 27  1  0  0  0  0
 13 28  2  0  0  0  0
 14 15  1  0  0  0  0
 14 17  1  0  0  0  0
 15 20  1  0  0  0  0
 16 18  1  0  0  0  0
 16 21  1  0  0  0  0
 17 25  1  0  0  0  0
 18 26  1  0  0  0  0
 19 21  1  0  0  0  0
 19 26  1  0  0  0  0
 20 25  1  0  0  0  0
 21 29  1  0  0  0  0
 22 24  1  0  0  0  0
  1 32  1  0  0  0  0
  2 33  1  0  0  0  0
  3 34  1  0  0  0  0
  4 35  1  0  0  0  0
 10 36  1  0  0  0  0
 11 37  1  0  0  0  0
 14 38  1  0  0  0  0
 14 39  1  0  0  0  0
 15 40  1  0  0  0  0
 15 41  1  0  0  0  0
 16 42  1  0  0  0  0
 16 43  1  0  0  0  0
 17 44  1  0  0  0  0
 17 45  1  0  0  0  0
 18 46  1  0  0  0  0
 18 47  1  0  0  0  0
 19 48  1  0  0  0  0
 19 49  1  0  0  0  0
 20 50  1  0  0  0  0
 21 51  1  0  0  0  0
 27 52  1  0  0  0  0
 29 53  1  0  0  0  0
M  END
> <Chemgauss4>
-12.025864

$$$$
selitrectinib_1
  -OEChem-07152009523D

 49 53  0     1  0  0  0  0  0999 V2000
  -17.3577  -13.1628   18.0928 C   0  0  0  0  0  0  0  0  0  0  0  0
  -14.1129  -12.0059   11.8173 C   0  0  0  0  0  0  0  0  0  0  0  0
  -15.4796  -14.3529   18.8941 C   0  0  0  0  0  0  0  0  0  0  0  0
  -14.5523  -12.9081   12.8032 C   0  0  0  0  0  0  0  0  0  0  0  0
  -17.4235  -14.0154   16.9760 C   0  0  0  0  0  0  0  0  0  0  0  0
  -16.3788  -13.3240   19.0632 C   0  0  0  0  0  0  0  0  0  0  0  0
  -16.4179  -14.9943   16.8635 C   0  0  0  0  0  0  0  0  0  0  0  0
  -15.6969  -12.3205   13.3067 C   0  0  0  0  0  0  0  0  0  0  0  0
  -17.8107  -10.6351   13.8897 C   0  0  0  0  0  0  0  0  0  0  0  0
  -16.9016  -10.2633   12.9820 C   0  0  0  0  0  0  0  0  0  0  0  0
  -13.9976  -14.1927   13.1946 C   0  0  0  0  0  0  0  0  0  0  0  0
  -17.6514  -12.0106   14.5032 C   0  0  0  0  0  0  0  0  0  0  0  0
  -16.3189  -15.9165   15.6668 C   0  0  0  0  0  0  0  0  0  0  0  0
  -14.9493  -16.5797   15.3979 C   0  0  0  0  0  0  0  0  0  0  0  0
  -20.8529  -13.1306   15.8584 C   0  0  0  0  0  0  0  0  0  0  0  0
  -19.9419  -14.0465   16.6547 C   0  0  0  0  0  0  0  0  0  0  0  0
  -19.9633  -11.9360   15.5429 C   0  0  0  0  0  0  0  0  0  0  0  0
  -18.5647  -13.8592   15.9873 C   0  0  1  0  0  0  0  0  0  0  0  0
  -13.7354  -15.6320   15.2873 C   0  0  1  0  0  0  0  0  0  0  0  0
  -12.4994  -16.3653   14.7687 C   0  0  0  0  0  0  0  0  0  0  0  0
  -15.4831  -15.1852   17.8324 N   0  0  0  0  0  0  0  0  0  0  0  0
  -14.8679  -10.9091   11.7387 N   0  0  0  0  0  0  0  0  0  0  0  0
  -16.6048  -12.7567   14.2175 N   0  0  0  0  0  0  0  0  0  0  0  0
  -15.8464  -11.1042   12.6598 N   0  0  0  0  0  0  0  0  0  0  0  0
  -14.0492  -14.4024   14.5635 N   0  0  0  0  0  0  0  0  0  0  0  0
  -18.6295  -12.5132   15.3722 N   0  0  0  0  0  0  0  0  0  0  0  0
  -13.5267  -14.9619   12.3646 O   0  0  0  0  0  0  0  0  0  0  0  0
  -16.3186  -12.5150   20.1257 F   0  0  0  0  0  0  0  0  0  0  0  0
  -18.0815  -12.3589   18.2139 H   0  0  0  0  0  0  0  0  0  0  0  0
  -13.2716  -12.1019   11.1465 H   0  0  0  0  0  0  0  0  0  0  0  0
  -14.7043  -14.5433   19.6279 H   0  0  0  0  0  0  0  0  0  0  0  0
  -18.6223   -9.9859   14.1843 H   0  0  0  0  0  0  0  0  0  0  0  0
  -16.9398   -9.3022   12.4843 H   0  0  0  0  0  0  0  0  0  0  0  0
  -17.0632  -16.7092   15.7998 H   0  0  0  0  0  0  0  0  0  0  0  0
  -16.5892  -15.3796   14.7554 H   0  0  0  0  0  0  0  0  0  0  0  0
  -14.7466  -17.3125   16.1841 H   0  0  0  0  0  0  0  0  0  0  0  0
  -15.0520  -17.1457   14.4670 H   0  0  0  0  0  0  0  0  0  0  0  0
  -21.1670  -13.6243   14.9308 H   0  0  0  0  0  0  0  0  0  0  0  0
  -21.7494  -12.8472   16.4176 H   0  0  0  0  0  0  0  0  0  0  0  0
  -19.9466  -13.7406   17.7089 H   0  0  0  0  0  0  0  0  0  0  0  0
  -20.2757  -15.0906   16.6153 H   0  0  0  0  0  0  0  0  0  0  0  0
  -20.3214  -11.4330   14.6413 H   0  0  0  0  0  0  0  0  0  0  0  0
  -19.9520  -11.2272   16.3760 H   0  0  0  0  0  0  0  0  0  0  0  0
  -18.5007  -14.5786   15.1724 H   0  0  0  0  0  0  0  0  0  0  0  0
  -13.4931  -15.2934   16.3333 H   0  0  0  0  0  0  0  0  0  0  0  0
  -12.6802  -16.7160   13.7549 H   0  0  0  0  0  0  0  0  0  0  0  0
  -12.2831  -17.2170   15.4098 H   0  0  0  0  0  0  0  0  0  0  0  0
  -11.6464  -15.6902   14.7683 H   0  0  0  0  0  0  0  0  0  0  0  0
  -14.3187  -13.5814   15.1541 H   0  0  0  0  0  0  0  0  0  0  0  0
  1  5  2  0  0  0  0
  1  6  1  0  0  0  0
  2  4  1  0  0  0  0
  2 22  2  0  0  0  0
  3  6  2  0  0  0  0
  3 21  1  0  0  0  0
  4  8  2  0  0  0  0
  4 11  1  0  0  0  0
  5  7  1  0  0  0  0
  5 18  1  0  0  0  0
  6 28  1  0  0  0  0
  7 13  1  0  0  0  0
  7 21  2  0  0  0  0
  8 23  1  0  0  0  0
  8 24  1  0  0  0  0
  9 10  2  0  0  0  0
  9 12  1  0  0  0  0
 10 24  1  0  0  0  0
 11 25  1  0  0  0  0
 11 27  2  0  0  0  0
 12 23  2  0  0  0  0
 12 26  1  0  0  0  0
 13 14  1  0  0  0  0
 14 19  1  0  0  0  0
 15 16  1  0  0  0  0
 15 17  1  0  0  0  0
 16 18  1  0  0  0  0
 17 26  1  0  0  0  0
 18 26  1  0  0  0  0
 19 20  1  0  0  0  0
 19 25  1  0  0  0  0
 22 24  1  0  0  0  0
  1 29  1  0  0  0  0
  2 30  1  0  0  0  0
  3 31  1  0  0  0  0
  9 32  1  0  0  0  0
 10 33  1  0  0  0  0
 13 34  1  0  0  0  0
 13 35  1  0  0  0  0
 14 36  1  0  0  0  0
 14 37  1  0  0  0  0
 15 38  1  0  0  0  0
 15 39  1  0  0  0  0
 16 40  1  0  0  0  0
 16 41  1  0  0  0  0
 17 42  1  0  0  0  0
 17 43  1  0  0  0  0
 18 44  1  0  0  0  0
 19 45  1  0  0  0  0
 20 46  1  0  0  0  0
 20 47  1  0  0  0  0
 20 48  1  0  0  0  0
 25 49  1  0  0  0  0
M  END
> <Chemgauss4>
-7.141750

$$$$
repotrectinib_1
  -OEChem-07152009523D

 44 47  0     1  0  0  0  0  0999 V2000
  -16.5372   -9.2099   13.2459 C   0  0  0  0  0  0  0  0  0  0  0  0
  -15.6295   -9.1330   12.1927 C   0  0  0  0  0  0  0  0  0  0  0  0
  -15.6304  -11.5440   12.0164 C   0  0  0  0  0  0  0  0  0  0  0  0
  -17.5485  -12.6140   19.9068 C   0  0  0  0  0  0  0  0  0  0  0  0
  -17.9042  -12.1024   18.6438 C   0  0  0  0  0  0  0  0  0  0  0  0
  -16.5659  -11.6496   13.0590 C   0  0  0  0  0  0  0  0  0  0  0  0
  -17.0087  -10.4559   13.6716 C   0  0  0  0  0  0  0  0  0  0  0  0
  -15.1732  -10.2975   11.5824 C   0  0  0  0  0  0  0  0  0  0  0  0
  -17.2085  -12.9060   17.7574 C   0  0  0  0  0  0  0  0  0  0  0  0
  -15.3996  -14.6366   16.5684 C   0  0  0  0  0  0  0  0  0  0  0  0
  -15.5531  -14.6522   17.8975 C   0  0  0  0  0  0  0  0  0  0  0  0
  -18.7134  -10.9361   18.3146 C   0  0  0  0  0  0  0  0  0  0  0  0
  -16.2753  -13.6827   15.7959 C   0  0  0  0  0  0  0  0  0  0  0  0
  -19.4718   -9.7054   16.2669 C   0  0  0  0  0  0  0  0  0  0  0  0
  -17.0926  -13.0081   13.5023 C   0  0  1  0  0  0  0  0  0  0  0  0
  -19.0436   -9.8342   14.7896 C   0  0  2  0  0  0  0  0  0  0  0  0
  -17.4077  -13.9563   12.3383 C   0  0  0  0  0  0  0  0  0  0  0  0
  -20.0934  -10.5976   13.9829 C   0  0  0  0  0  0  0  0  0  0  0  0
  -16.7067  -13.6467   19.8389 N   0  0  0  0  0  0  0  0  0  0  0  0
  -17.1284  -12.8900   16.4008 N   0  0  0  0  0  0  0  0  0  0  0  0
  -16.4541  -13.7912   18.5128 N   0  0  0  0  0  0  0  0  0  0  0  0
  -19.1620  -10.9230   17.0034 N   0  0  0  0  0  0  0  0  0  0  0  0
  -16.1603  -13.6727   14.4100 N   0  0  0  0  0  0  0  0  0  0  0  0
  -18.9096  -10.0378   19.1280 O   0  0  0  0  0  0  0  0  0  0  0  0
  -17.8015  -10.5591   14.7799 O   0  0  0  0  0  0  0  0  0  0  0  0
  -14.2931  -10.2235   10.5727 F   0  0  0  0  0  0  0  0  0  0  0  0
  -16.8579   -8.2827   13.6960 H   0  0  0  0  0  0  0  0  0  0  0  0
  -15.2797   -8.1672   11.8436 H   0  0  0  0  0  0  0  0  0  0  0  0
  -15.2391  -12.4325   11.5290 H   0  0  0  0  0  0  0  0  0  0  0  0
  -17.8742  -12.2772   20.8810 H   0  0  0  0  0  0  0  0  0  0  0  0
  -14.6858  -15.2598   16.0446 H   0  0  0  0  0  0  0  0  0  0  0  0
  -14.9899  -15.3199   18.5387 H   0  0  0  0  0  0  0  0  0  0  0  0
  -18.9785   -8.8503   16.7439 H   0  0  0  0  0  0  0  0  0  0  0  0
  -20.5583   -9.5768   16.3445 H   0  0  0  0  0  0  0  0  0  0  0  0
  -18.0507  -12.8836   14.0482 H   0  0  0  0  0  0  0  0  0  0  0  0
  -18.9109   -8.8117   14.4032 H   0  0  0  0  0  0  0  0  0  0  0  0
  -16.5077  -14.1275   11.7520 H   0  0  0  0  0  0  0  0  0  0  0  0
  -18.1717  -13.5142   11.7029 H   0  0  0  0  0  0  0  0  0  0  0  0
  -17.7690  -14.9056   12.7274 H   0  0  0  0  0  0  0  0  0  0  0  0
  -20.2062  -11.6035   14.3834 H   0  0  0  0  0  0  0  0  0  0  0  0
  -19.7835  -10.6606   12.9413 H   0  0  0  0  0  0  0  0  0  0  0  0
  -21.0498  -10.0808   14.0404 H   0  0  0  0  0  0  0  0  0  0  0  0
  -19.2811  -11.7991   16.5323 H   0  0  0  0  0  0  0  0  0  0  0  0
  -15.3288  -14.0965   13.9873 H   0  0  0  0  0  0  0  0  0  0  0  0
  1  2  1  0  0  0  0
  1  7  2  0  0  0  0
  2  8  2  0  0  0  0
  3  6  2  0  0  0  0
  3  8  1  0  0  0  0
  4  5  1  0  0  0  0
  4 19  2  0  0  0  0
  5  9  2  0  0  0  0
  5 12  1  0  0  0  0
  6  7  1  0  0  0  0
  6 15  1  0  0  0  0
  7 25  1  0  0  0  0
  8 26  1  0  0  0  0
  9 20  1  0  0  0  0
  9 21  1  0  0  0  0
 10 11  2  0  0  0  0
 10 13  1  0  0  0  0
 11 21  1  0  0  0  0
 12 22  1  0  0  0  0
 12 24  2  0  0  0  0
 13 20  2  0  0  0  0
 13 23  1  0  0  0  0
 14 16  1  0  0  0  0
 14 22  1  0  0  0  0
 15 17  1  0  0  0  0
 15 23  1  0  0  0  0
 16 18  1  0  0  0  0
 16 25  1  0  0  0  0
 19 21  1  0  0  0  0
  1 27  1  0  0  0  0
  2 28  1  0  0  0  0
  3 29  1  0  0  0  0
  4 30  1  0  0  0  0
 10 31  1  0  0  0  0
 11 32  1  0  0  0  0
 14 33  1  0  0  0  0
 14 34  1  0  0  0  0
 15 35  1  0  0  0  0
 16 36  1  0  0  0  0
 17 37  1  0  0  0  0
 17 38  1  0  0  0  0
 17 39  1  0  0  0  0
 18 40  1  0  0  0  0
 18 41  1  0  0  0  0
 18 42  1  0  0  0  0
 22 43  1  0  0  0  0
 23 44  1  0  0  0  0
M  END
> <Chemgauss4>
-8.069060

$$$$
